<?xml version="1.0" encoding="UTF-8"?>

<!-- generated on 2025-05-29 12:22:36 by Eclipse SUMO jtrrouter Version 1.21.0
<jtrrouterConfiguration xmlns:xsi="http://www.w3.org/2001/XMLSchema-instance" xsi:noNamespaceSchemaLocation="http://sumo.dlr.de/xsd/jtrrouterConfiguration.xsd">

    <input>
        <net-file value="c:/Users/xh8/ornl_work/github_workspace/Real-Twin-Dev/datasets/input_dir_dummy/output/SUMO/turn_inflow/chatt.net.xml"/>
        <route-files value="c:/Users/xh8/ornl_work/github_workspace/Real-Twin-Dev/datasets/input_dir_dummy/output/SUMO/turn_inflow/route/chatt.flow.xml"/>
        <turn-ratio-files value="c:/Users/xh8/ornl_work/github_workspace/Real-Twin-Dev/datasets/input_dir_dummy/output/SUMO/turn_inflow/route/chatt.turn.xml"/>
    </input>

    <output>
        <output-file value="c:/Users/xh8/ornl_work/github_workspace/Real-Twin-Dev/datasets/input_dir_dummy/output/SUMO/turn_inflow/route/chatt.rou.xml"/>
    </output>

    <processing>
        <randomize-flows value="true"/>
        <remove-loops value="True"/>
        <accept-all-destinations value="true"/>
    </processing>

</jtrrouterConfiguration>
-->

<routes xmlns:xsi="http://www.w3.org/2001/XMLSchema-instance" xsi:noNamespaceSchemaLocation="http://sumo.dlr.de/xsd/routes_file.xsd">
    <vType id="car"/>
    <vehicle id="4.0" type="car" depart="28800.56">
        <route edges="-292 -288 -2881 -287"/>
    </vehicle>
    <vehicle id="4.1" type="car" depart="28800.79">
        <route edges="-292 -288 -2881 -287"/>
    </vehicle>
    <vehicle id="10.0" type="car" depart="28800.81">
        <route edges="-2801 -280 -305"/>
    </vehicle>
    <vehicle id="5.0" type="car" depart="28801.15">
        <route edges="-310 -286 -302 -3221 -322 -314"/>
    </vehicle>
    <vehicle id="5.1" type="car" depart="28801.83">
        <route edges="-310 -286 -302 -323"/>
    </vehicle>
    <vehicle id="6.0" type="car" depart="28802.36">
        <route edges="-319 -303"/>
    </vehicle>
    <vehicle id="11.0" type="car" depart="28802.83">
        <route edges="-308 -307 -329"/>
    </vehicle>
    <vehicle id="4.2" type="car" depart="28803.84">
        <route edges="-292 -288 -2881 -287"/>
    </vehicle>
    <vehicle id="13.0" type="car" depart="28806.14">
        <route edges="-316 -315 -3151 -321 -300 -2851 -285 -289"/>
    </vehicle>
    <vehicle id="4.3" type="car" depart="28806.36">
        <route edges="-292 -288 -2881 -287"/>
    </vehicle>
    <vehicle id="2.0" type="car" depart="28807.38">
        <route edges="-312 -293 -297 -288 -2881 -287"/>
    </vehicle>
    <vehicle id="5.2" type="car" depart="28807.90">
        <route edges="-310 -286 -302 -323"/>
    </vehicle>
    <vehicle id="16.0" type="car" depart="28808.55">
        <route edges="-331 -297 -288 -2881 -2851 -285 -289"/>
    </vehicle>
    <vehicle id="10.1" type="car" depart="28808.81">
        <route edges="-2801 -280 -307 -327 -3271 -281 -315 -3151 -321 -300 -2851 -285 -289"/>
    </vehicle>
    <vehicle id="1.0" type="car" depart="28809.74">
        <route edges="-309 -293 -297 -288 -2881 -287"/>
    </vehicle>
    <vehicle id="10.2" type="car" depart="28811.12">
        <route edges="-2801 -280 -307 -329"/>
    </vehicle>
    <vehicle id="5.3" type="car" depart="28812.90">
        <route edges="-310 -287"/>
    </vehicle>
    <vehicle id="14.0" type="car" depart="28812.93">
        <route edges="-320 -3221 -322 -314"/>
    </vehicle>
    <vehicle id="6.1" type="car" depart="28813.05">
        <route edges="-319 -300 -2851 -285 -289"/>
    </vehicle>
    <vehicle id="5.4" type="car" depart="28813.17">
        <route edges="-310 -287"/>
    </vehicle>
    <vehicle id="16.1" type="car" depart="28813.41">
        <route edges="-331 -297 -288 -2881 -287"/>
    </vehicle>
    <vehicle id="4.4" type="car" depart="28813.56">
        <route edges="-292 -288 -2881 -287"/>
    </vehicle>
    <vehicle id="5.5" type="car" depart="28815.72">
        <route edges="-310 -2851 -285 -289"/>
    </vehicle>
    <vehicle id="5.6" type="car" depart="28816.72">
        <route edges="-310 -2851 -285 -289"/>
    </vehicle>
    <vehicle id="5.7" type="car" depart="28817.50">
        <route edges="-310 -2851 -285 -289"/>
    </vehicle>
    <vehicle id="7.0" type="car" depart="28817.81">
        <route edges="-325 -300 -2851 -285 -289"/>
    </vehicle>
    <vehicle id="9.0" type="car" depart="28817.83">
        <route edges="-318 -281 -315 -3151 -321 -300 -2851 -285 -289"/>
    </vehicle>
    <vehicle id="2.1" type="car" depart="28818.13">
        <route edges="-312 -293 -299"/>
    </vehicle>
    <vehicle id="2.2" type="car" depart="28818.39">
        <route edges="-312 -293 -299"/>
    </vehicle>
    <vehicle id="10.3" type="car" depart="28818.68">
        <route edges="-2801 -280 -307 -327 -3271 -281 -315 -3151 -321 -300 -2851 -285 -289"/>
    </vehicle>
    <vehicle id="4.5" type="car" depart="28818.68">
        <route edges="-292 -288 -2881 -287"/>
    </vehicle>
    <vehicle id="2.3" type="car" depart="28819.60">
        <route edges="-312 -293 -299"/>
    </vehicle>
    <vehicle id="5.8" type="car" depart="28822.71">
        <route edges="-310 -2851 -285 -289"/>
    </vehicle>
    <vehicle id="12.0" type="car" depart="28823.03">
        <route edges="-326 -304"/>
    </vehicle>
    <vehicle id="2.4" type="car" depart="28825.67">
        <route edges="-312 -293 -299"/>
    </vehicle>
    <vehicle id="13.1" type="car" depart="28826.51">
        <route edges="-316 -315 -3151 -321 -300 -2851 -285 -289"/>
    </vehicle>
    <vehicle id="3.0" type="car" depart="28827.48">
        <route edges="-324 -293 -297 -288 -2881 -287"/>
    </vehicle>
    <vehicle id="4.6" type="car" depart="28830.86">
        <route edges="-292 -288 -2881 -287"/>
    </vehicle>
    <vehicle id="11.1" type="car" depart="28831.69">
        <route edges="-308 -307 -327 -3271 -281 -315 -3151 -321 -300 -2851 -285 -289"/>
    </vehicle>
    <vehicle id="11.2" type="car" depart="28832.34">
        <route edges="-308 -307 -327 -3271 -283"/>
    </vehicle>
    <vehicle id="5.9" type="car" depart="28833.22">
        <route edges="-310 -286 -302 -3221 -322 -314"/>
    </vehicle>
    <vehicle id="10.4" type="car" depart="28833.49">
        <route edges="-2801 -280 -307 -327 -3271 -281 -315 -3151 -321 -300 -2851 -285 -289"/>
    </vehicle>
    <vehicle id="2.5" type="car" depart="28833.65">
        <route edges="-312 -293 -297 -289"/>
    </vehicle>
    <vehicle id="2.6" type="car" depart="28835.86">
        <route edges="-312 -293 -297 -288 -2881 -2851 -285 -289"/>
    </vehicle>
    <vehicle id="11.3" type="car" depart="28836.69">
        <route edges="-308 -307 -327 -3271 -281 -315 -3151 -321 -300 -2851 -285 -289"/>
    </vehicle>
    <vehicle id="10.5" type="car" depart="28836.86">
        <route edges="-2801 -280 -307 -329"/>
    </vehicle>
    <vehicle id="12.1" type="car" depart="28837.11">
        <route edges="-326 -305"/>
    </vehicle>
    <vehicle id="10.6" type="car" depart="28837.12">
        <route edges="-2801 -280 -307 -327 -3271 -281 -315 -3151 -321 -300 -2851 -285 -289"/>
    </vehicle>
    <vehicle id="12.2" type="car" depart="28837.27">
        <route edges="-326 -307 -327 -3271 -281 -315 -3151 -321 -300 -2851 -285 -289"/>
    </vehicle>
    <vehicle id="2.7" type="car" depart="28837.69">
        <route edges="-312 -293 -297 -288 -2881 -287"/>
    </vehicle>
    <vehicle id="5.10" type="car" depart="28838.04">
        <route edges="-310 -286 -302 -323"/>
    </vehicle>
    <vehicle id="12.3" type="car" depart="28839.02">
        <route edges="-326 -305"/>
    </vehicle>
    <vehicle id="5.11" type="car" depart="28839.03">
        <route edges="-310 -2851 -285 -289"/>
    </vehicle>
    <vehicle id="10.7" type="car" depart="28839.30">
        <route edges="-2801 -280 -307 -327 -3271 -281 -315 -3151 -321 -300 -2851 -285 -289"/>
    </vehicle>
    <vehicle id="11.4" type="car" depart="28839.43">
        <route edges="-308 -307 -327 -3271 -281 -315 -3151 -321 -300 -2851 -285 -289"/>
    </vehicle>
    <vehicle id="10.8" type="car" depart="28839.70">
        <route edges="-2801 -280 -307 -327 -3271 -281 -315 -3151 -321 -300 -2851 -285 -289"/>
    </vehicle>
    <vehicle id="5.12" type="car" depart="28839.99">
        <route edges="-310 -286 -302 -323"/>
    </vehicle>
    <vehicle id="4.7" type="car" depart="28840.24">
        <route edges="-292 -288 -2881 -287"/>
    </vehicle>
    <vehicle id="2.8" type="car" depart="28841.55">
        <route edges="-312 -293 -297 -288 -2881 -287"/>
    </vehicle>
    <vehicle id="16.2" type="car" depart="28841.63">
        <route edges="-331 -297 -288 -2881 -2851 -285 -289"/>
    </vehicle>
    <vehicle id="4.8" type="car" depart="28842.16">
        <route edges="-292 -288 -2881 -287"/>
    </vehicle>
    <vehicle id="5.13" type="car" depart="28847.01">
        <route edges="-310 -2851 -285 -289"/>
    </vehicle>
    <vehicle id="5.14" type="car" depart="28849.13">
        <route edges="-310 -286 -302 -3221 -322 -314"/>
    </vehicle>
    <vehicle id="6.2" type="car" depart="28850.60">
        <route edges="-319 -300 -2851 -285 -289"/>
    </vehicle>
    <vehicle id="2.9" type="car" depart="28852.36">
        <route edges="-312 -293 -297 -288 -2881 -287"/>
    </vehicle>
    <vehicle id="12.4" type="car" depart="28852.47">
        <route edges="-326 -304"/>
    </vehicle>
    <vehicle id="11.5" type="car" depart="28853.23">
        <route edges="-308 -307 -327 -3271 -281 -315 -3151 -321 -300 -2851 -285 -289"/>
    </vehicle>
    <vehicle id="9.1" type="car" depart="28853.48">
        <route edges="-318 -281 -315 -3151 -321 -300 -2851 -285 -289"/>
    </vehicle>
    <vehicle id="5.15" type="car" depart="28854.70">
        <route edges="-310 -286 -302 -3221 -322 -314"/>
    </vehicle>
    <vehicle id="2.10" type="car" depart="28855.65">
        <route edges="-312 -293 -297 -288 -2881 -287"/>
    </vehicle>
    <vehicle id="3.1" type="car" depart="28857.85">
        <route edges="-324 -293 -299"/>
    </vehicle>
    <vehicle id="14.1" type="car" depart="28859.96">
        <route edges="-320 -3221 -322 -314"/>
    </vehicle>
    <vehicle id="14.2" type="car" depart="28862.24">
        <route edges="-320 -3221 -322 -314"/>
    </vehicle>
    <vehicle id="3.2" type="car" depart="28863.58">
        <route edges="-324 -293 -297 -289"/>
    </vehicle>
    <vehicle id="5.16" type="car" depart="28865.06">
        <route edges="-310 -287"/>
    </vehicle>
    <vehicle id="7.1" type="car" depart="28865.72">
        <route edges="-325 -300 -2851 -285 -289"/>
    </vehicle>
    <vehicle id="4.9" type="car" depart="28867.68">
        <route edges="-292 -288 -2881 -287"/>
    </vehicle>
    <vehicle id="2.11" type="car" depart="28869.48">
        <route edges="-312 -293 -297 -288 -2881 -287"/>
    </vehicle>
    <vehicle id="12.5" type="car" depart="28870.55">
        <route edges="-326 -307 -327 -3271 -281 -315 -3151 -321 -300 -2851 -285 -289"/>
    </vehicle>
    <vehicle id="2.12" type="car" depart="28872.60">
        <route edges="-312 -293 -299"/>
    </vehicle>
    <vehicle id="10.9" type="car" depart="28873.30">
        <route edges="-2801 -280 -307 -327 -3271 -281 -315 -3151 -321 -300 -2851 -285 -289"/>
    </vehicle>
    <vehicle id="14.3" type="car" depart="28879.84">
        <route edges="-320 -3221 -322 -314"/>
    </vehicle>
    <vehicle id="4.10" type="car" depart="28880.26">
        <route edges="-292 -288 -2881 -287"/>
    </vehicle>
    <vehicle id="5.17" type="car" depart="28881.63">
        <route edges="-310 -286 -302 -323"/>
    </vehicle>
    <vehicle id="3.3" type="car" depart="28882.19">
        <route edges="-324 -293 -299"/>
    </vehicle>
    <vehicle id="2.13" type="car" depart="28883.60">
        <route edges="-312 -293 -297 -288 -2881 -287"/>
    </vehicle>
    <vehicle id="11.6" type="car" depart="28888.45">
        <route edges="-308 -307 -327 -3271 -281 -315 -3151 -321 -300 -2851 -285 -289"/>
    </vehicle>
    <vehicle id="10.10" type="car" depart="28888.60">
        <route edges="-2801 -280 -305"/>
    </vehicle>
    <vehicle id="10.11" type="car" depart="28888.91">
        <route edges="-2801 -280 -307 -327 -3271 -281 -315 -3151 -321 -300 -2851 -285 -289"/>
    </vehicle>
    <vehicle id="5.18" type="car" depart="28889.60">
        <route edges="-310 -2851 -285 -289"/>
    </vehicle>
    <vehicle id="11.7" type="car" depart="28889.84">
        <route edges="-308 -307 -329"/>
    </vehicle>
    <vehicle id="5.19" type="car" depart="28889.94">
        <route edges="-310 -2851 -285 -289"/>
    </vehicle>
    <vehicle id="10.12" type="car" depart="28890.47">
        <route edges="-2801 -280 -307 -327 -3271 -281 -315 -3151 -321 -301"/>
    </vehicle>
    <vehicle id="8.0" type="car" depart="28894.84">
        <route edges="-317 -281 -315 -3151 -321 -300 -2851 -285 -289"/>
    </vehicle>
    <vehicle id="12.6" type="car" depart="28895.87">
        <route edges="-326 -307 -329"/>
    </vehicle>
    <vehicle id="14.4" type="car" depart="28896.78">
        <route edges="-320 -3221 -322 -313 -284 -2841 -329"/>
    </vehicle>
    <vehicle id="2.14" type="car" depart="28898.13">
        <route edges="-312 -293 -297 -289"/>
    </vehicle>
    <vehicle id="10.13" type="car" depart="28898.26">
        <route edges="-2801 -280 -307 -327 -3271 -281 -315 -3151 -321 -300 -2851 -285 -289"/>
    </vehicle>
    <vehicle id="5.20" type="car" depart="28900.63">
        <route edges="-310 -2851 -285 -289"/>
    </vehicle>
    <vehicle id="5.21" type="car" depart="28900.72">
        <route edges="-310 -287"/>
    </vehicle>
    <vehicle id="10.14" type="car" depart="28901.43">
        <route edges="-2801 -280 -307 -327 -3271 -281 -315 -3151 -321 -300 -2851 -285 -289"/>
    </vehicle>
    <vehicle id="2.15" type="car" depart="28901.67">
        <route edges="-312 -293 -299"/>
    </vehicle>
    <vehicle id="11.8" type="car" depart="28902.72">
        <route edges="-308 -306"/>
    </vehicle>
    <vehicle id="15.0" type="car" depart="28906.03">
        <route edges="-330 -327 -3271 -281 -315 -3151 -321 -300 -2851 -285 -289"/>
    </vehicle>
    <vehicle id="4.11" type="car" depart="28906.81">
        <route edges="-292 -288 -2881 -287"/>
    </vehicle>
    <vehicle id="11.9" type="car" depart="28906.83">
        <route edges="-308 -304"/>
    </vehicle>
    <vehicle id="12.7" type="car" depart="28907.53">
        <route edges="-326 -305"/>
    </vehicle>
    <vehicle id="5.22" type="car" depart="28907.79">
        <route edges="-310 -286 -302 -3221 -322 -313 -284 -2841 -329"/>
    </vehicle>
    <vehicle id="2.16" type="car" depart="28907.83">
        <route edges="-312 -293 -297 -288 -2881 -287"/>
    </vehicle>
    <vehicle id="12.8" type="car" depart="28908.11">
        <route edges="-326 -307 -327 -3271 -281 -315 -3151 -321 -300 -2851 -285 -289"/>
    </vehicle>
    <vehicle id="3.4" type="car" depart="28908.52">
        <route edges="-324 -295"/>
    </vehicle>
    <vehicle id="5.23" type="car" depart="28908.63">
        <route edges="-310 -286 -302 -3221 -322 -314"/>
    </vehicle>
    <vehicle id="16.3" type="car" depart="28910.10">
        <route edges="-331 -297 -288 -2881 -287"/>
    </vehicle>
    <vehicle id="5.24" type="car" depart="28913.34">
        <route edges="-310 -2851 -285 -289"/>
    </vehicle>
    <vehicle id="5.25" type="car" depart="28914.32">
        <route edges="-310 -286 -303"/>
    </vehicle>
    <vehicle id="2.17" type="car" depart="28915.58">
        <route edges="-312 -293 -297 -288 -2881 -287"/>
    </vehicle>
    <vehicle id="10.15" type="car" depart="28915.67">
        <route edges="-2801 -280 -307 -327 -3271 -281 -315 -3151 -321 -300 -2851 -285 -289"/>
    </vehicle>
    <vehicle id="5.26" type="car" depart="28915.96">
        <route edges="-310 -286 -302 -323"/>
    </vehicle>
    <vehicle id="10.16" type="car" depart="28916.57">
        <route edges="-2801 -280 -307 -327 -3271 -281 -315 -3151 -321 -301"/>
    </vehicle>
    <vehicle id="5.27" type="car" depart="28916.59">
        <route edges="-310 -286 -302 -323"/>
    </vehicle>
    <vehicle id="10.17" type="car" depart="28917.04">
        <route edges="-2801 -280 -307 -329"/>
    </vehicle>
    <vehicle id="5.28" type="car" depart="28917.27">
        <route edges="-310 -286 -302 -323"/>
    </vehicle>
    <vehicle id="10.18" type="car" depart="28919.54">
        <route edges="-2801 -280 -307 -327 -3271 -281 -315 -3151 -321 -301"/>
    </vehicle>
    <vehicle id="12.9" type="car" depart="28920.89">
        <route edges="-326 -305"/>
    </vehicle>
    <vehicle id="3.5" type="car" depart="28921.78">
        <route edges="-324 -293 -297 -288 -2881 -287"/>
    </vehicle>
    <vehicle id="2.18" type="car" depart="28922.15">
        <route edges="-312 -293 -299"/>
    </vehicle>
    <vehicle id="2.19" type="car" depart="28925.46">
        <route edges="-312 -293 -297 -288 -2881 -287"/>
    </vehicle>
    <vehicle id="6.3" type="car" depart="28926.31">
        <route edges="-319 -300 -2851 -285 -289"/>
    </vehicle>
    <vehicle id="5.29" type="car" depart="28926.77">
        <route edges="-310 -2851 -285 -289"/>
    </vehicle>
    <vehicle id="10.19" type="car" depart="28927.75">
        <route edges="-2801 -280 -306"/>
    </vehicle>
    <vehicle id="15.1" type="car" depart="28928.09">
        <route edges="-330 -328 -304"/>
    </vehicle>
    <vehicle id="5.30" type="car" depart="28928.54">
        <route edges="-310 -2851 -285 -289"/>
    </vehicle>
    <vehicle id="2.20" type="car" depart="28928.73">
        <route edges="-312 -293 -299"/>
    </vehicle>
    <vehicle id="16.4" type="car" depart="28929.03">
        <route edges="-331 -297 -288 -2881 -287"/>
    </vehicle>
    <vehicle id="10.20" type="car" depart="28930.27">
        <route edges="-2801 -280 -305"/>
    </vehicle>
    <vehicle id="16.5" type="car" depart="28930.63">
        <route edges="-331 -297 -288 -2881 -2851 -285 -289"/>
    </vehicle>
    <vehicle id="16.6" type="car" depart="28930.88">
        <route edges="-331 -297 -289"/>
    </vehicle>
    <vehicle id="5.31" type="car" depart="28932.74">
        <route edges="-310 -286 -302 -323"/>
    </vehicle>
    <vehicle id="5.32" type="car" depart="28934.92">
        <route edges="-310 -286 -302 -3221 -322 -314"/>
    </vehicle>
    <vehicle id="4.12" type="car" depart="28936.13">
        <route edges="-292 -288 -2881 -287"/>
    </vehicle>
    <vehicle id="10.21" type="car" depart="28936.66">
        <route edges="-2801 -280 -307 -327 -3271 -281 -315 -3151 -321 -300 -2851 -285 -289"/>
    </vehicle>
    <vehicle id="5.33" type="car" depart="28936.95">
        <route edges="-310 -2851 -285 -289"/>
    </vehicle>
    <vehicle id="10.22" type="car" depart="28937.33">
        <route edges="-2801 -280 -305"/>
    </vehicle>
    <vehicle id="12.10" type="car" depart="28937.39">
        <route edges="-326 -307 -327 -3271 -281 -315 -3151 -321 -300 -2851 -285 -289"/>
    </vehicle>
    <vehicle id="5.34" type="car" depart="28938.09">
        <route edges="-310 -2851 -285 -289"/>
    </vehicle>
    <vehicle id="9.2" type="car" depart="28939.18">
        <route edges="-318 -281 -315 -3151 -321 -300 -2851 -285 -289"/>
    </vehicle>
    <vehicle id="2.21" type="car" depart="28942.39">
        <route edges="-312 -293 -297 -288 -2881 -287"/>
    </vehicle>
    <vehicle id="4.13" type="car" depart="28942.95">
        <route edges="-292 -288 -2881 -287"/>
    </vehicle>
    <vehicle id="5.35" type="car" depart="28943.83">
        <route edges="-310 -286 -301"/>
    </vehicle>
    <vehicle id="8.1" type="car" depart="28945.40">
        <route edges="-317 -281 -315 -3151 -321 -300 -2851 -285 -289"/>
    </vehicle>
    <vehicle id="10.23" type="car" depart="28945.89">
        <route edges="-2801 -280 -307 -327 -3271 -281 -315 -3151 -321 -300 -2851 -285 -289"/>
    </vehicle>
    <vehicle id="5.36" type="car" depart="28947.41">
        <route edges="-310 -286 -302 -3221 -322 -314"/>
    </vehicle>
    <vehicle id="10.24" type="car" depart="28948.93">
        <route edges="-2801 -280 -307 -327 -3271 -281 -315 -3151 -321 -300 -2851 -285 -289"/>
    </vehicle>
    <vehicle id="12.11" type="car" depart="28949.63">
        <route edges="-326 -307 -327 -3271 -281 -315 -3151 -321 -300 -2851 -285 -289"/>
    </vehicle>
    <vehicle id="14.5" type="car" depart="28950.40">
        <route edges="-320 -3221 -322 -314"/>
    </vehicle>
    <vehicle id="10.25" type="car" depart="28950.67">
        <route edges="-2801 -280 -307 -327 -3271 -281 -315 -3151 -321 -300 -2851 -285 -289"/>
    </vehicle>
    <vehicle id="6.4" type="car" depart="28950.95">
        <route edges="-319 -302 -3221 -322 -314"/>
    </vehicle>
    <vehicle id="2.22" type="car" depart="28951.18">
        <route edges="-312 -293 -299"/>
    </vehicle>
    <vehicle id="5.37" type="car" depart="28951.45">
        <route edges="-310 -2851 -285 -289"/>
    </vehicle>
    <vehicle id="8.2" type="car" depart="28951.67">
        <route edges="-317 -284 -2841 -329"/>
    </vehicle>
    <vehicle id="10.26" type="car" depart="28953.19">
        <route edges="-2801 -280 -307 -327 -3271 -281 -315 -3151 -321 -301"/>
    </vehicle>
    <vehicle id="11.10" type="car" depart="28955.59">
        <route edges="-308 -307 -327 -3271 -281 -315 -3151 -321 -300 -2851 -285 -289"/>
    </vehicle>
    <vehicle id="3.6" type="car" depart="28955.65">
        <route edges="-324 -293 -297 -288 -2881 -287"/>
    </vehicle>
    <vehicle id="5.38" type="car" depart="28956.05">
        <route edges="-310 -286 -302 -3221 -322 -313 -284 -2841 -329"/>
    </vehicle>
    <vehicle id="12.12" type="car" depart="28956.33">
        <route edges="-326 -305"/>
    </vehicle>
    <vehicle id="4.14" type="car" depart="28956.93">
        <route edges="-292 -288 -2881 -287"/>
    </vehicle>
    <vehicle id="5.39" type="car" depart="28958.33">
        <route edges="-310 -2851 -285 -289"/>
    </vehicle>
    <vehicle id="2.23" type="car" depart="28958.69">
        <route edges="-312 -293 -297 -288 -2881 -287"/>
    </vehicle>
    <vehicle id="2.24" type="car" depart="28962.06">
        <route edges="-312 -293 -299"/>
    </vehicle>
    <vehicle id="2.25" type="car" depart="28963.02">
        <route edges="-312 -293 -299"/>
    </vehicle>
    <vehicle id="5.40" type="car" depart="28967.02">
        <route edges="-310 -2851 -285 -289"/>
    </vehicle>
    <vehicle id="10.27" type="car" depart="28967.17">
        <route edges="-2801 -280 -305"/>
    </vehicle>
    <vehicle id="2.26" type="car" depart="28967.24">
        <route edges="-312 -293 -297 -289"/>
    </vehicle>
    <vehicle id="11.11" type="car" depart="28967.28">
        <route edges="-308 -307 -327 -3271 -281 -315 -3151 -321 -300 -2851 -285 -289"/>
    </vehicle>
    <vehicle id="10.28" type="car" depart="28968.38">
        <route edges="-2801 -280 -307 -327 -3271 -281 -315 -3151 -321 -300 -2851 -285 -289"/>
    </vehicle>
    <vehicle id="2.27" type="car" depart="28968.77">
        <route edges="-312 -293 -297 -288 -2881 -287"/>
    </vehicle>
    <vehicle id="4.15" type="car" depart="28969.47">
        <route edges="-292 -288 -2881 -287"/>
    </vehicle>
    <vehicle id="5.41" type="car" depart="28969.75">
        <route edges="-310 -2851 -285 -289"/>
    </vehicle>
    <vehicle id="16.7" type="car" depart="28969.80">
        <route edges="-331 -297 -288 -2881 -287"/>
    </vehicle>
    <vehicle id="10.29" type="car" depart="28970.05">
        <route edges="-2801 -280 -305"/>
    </vehicle>
    <vehicle id="7.2" type="car" depart="28971.13">
        <route edges="-325 -301"/>
    </vehicle>
    <vehicle id="5.42" type="car" depart="28971.81">
        <route edges="-310 -286 -303"/>
    </vehicle>
    <vehicle id="5.43" type="car" depart="28973.47">
        <route edges="-310 -2851 -285 -289"/>
    </vehicle>
    <vehicle id="5.44" type="car" depart="28974.43">
        <route edges="-310 -286 -302 -323"/>
    </vehicle>
    <vehicle id="10.30" type="car" depart="28978.22">
        <route edges="-2801 -280 -306"/>
    </vehicle>
    <vehicle id="10.31" type="car" depart="28979.12">
        <route edges="-2801 -280 -307 -327 -3271 -282"/>
    </vehicle>
    <vehicle id="5.45" type="car" depart="28979.52">
        <route edges="-310 -286 -301"/>
    </vehicle>
    <vehicle id="2.28" type="car" depart="28979.74">
        <route edges="-312 -293 -297 -288 -2881 -287"/>
    </vehicle>
    <vehicle id="10.32" type="car" depart="28979.99">
        <route edges="-2801 -280 -307 -327 -3271 -281 -315 -3151 -321 -301"/>
    </vehicle>
    <vehicle id="4.16" type="car" depart="28980.55">
        <route edges="-292 -288 -2881 -287"/>
    </vehicle>
    <vehicle id="10.33" type="car" depart="28980.95">
        <route edges="-2801 -280 -307 -327 -3271 -281 -315 -3151 -321 -300 -2851 -285 -289"/>
    </vehicle>
    <vehicle id="14.6" type="car" depart="28981.34">
        <route edges="-320 -3221 -322 -314"/>
    </vehicle>
    <vehicle id="5.46" type="car" depart="28981.36">
        <route edges="-310 -286 -302 -3221 -322 -313 -284 -2841 -329"/>
    </vehicle>
    <vehicle id="16.8" type="car" depart="28981.60">
        <route edges="-331 -297 -288 -2881 -287"/>
    </vehicle>
    <vehicle id="4.17" type="car" depart="28981.72">
        <route edges="-292 -288 -2881 -287"/>
    </vehicle>
    <vehicle id="2.29" type="car" depart="28982.59">
        <route edges="-312 -293 -299"/>
    </vehicle>
    <vehicle id="4.18" type="car" depart="28986.01">
        <route edges="-292 -288 -2881 -2851 -285 -289"/>
    </vehicle>
    <vehicle id="10.34" type="car" depart="28987.79">
        <route edges="-2801 -280 -307 -327 -3271 -281 -315 -3151 -321 -300 -2851 -285 -289"/>
    </vehicle>
    <vehicle id="2.30" type="car" depart="28988.13">
        <route edges="-312 -293 -299"/>
    </vehicle>
    <vehicle id="11.12" type="car" depart="28988.21">
        <route edges="-308 -307 -327 -3271 -281 -315 -3151 -321 -300 -2851 -285 -289"/>
    </vehicle>
    <vehicle id="11.13" type="car" depart="28989.20">
        <route edges="-308 -307 -327 -3271 -281 -315 -3151 -321 -300 -2851 -285 -289"/>
    </vehicle>
    <vehicle id="4.19" type="car" depart="28989.35">
        <route edges="-292 -288 -2881 -287"/>
    </vehicle>
    <vehicle id="6.5" type="car" depart="28990.04">
        <route edges="-319 -300 -2851 -285 -289"/>
    </vehicle>
    <vehicle id="4.20" type="car" depart="28990.33">
        <route edges="-292 -288 -2881 -287"/>
    </vehicle>
    <vehicle id="9.3" type="car" depart="28993.70">
        <route edges="-318 -281 -315 -3151 -321 -300 -2851 -285 -289"/>
    </vehicle>
    <vehicle id="5.47" type="car" depart="28996.41">
        <route edges="-310 -2851 -285 -289"/>
    </vehicle>
    <vehicle id="8.3" type="car" depart="28996.88">
        <route edges="-317 -283"/>
    </vehicle>
    <vehicle id="9.4" type="car" depart="28998.31">
        <route edges="-318 -281 -315 -3151 -321 -300 -2851 -285 -289"/>
    </vehicle>
    <vehicle id="10.35" type="car" depart="28998.51">
        <route edges="-2801 -280 -307 -327 -3271 -281 -315 -3151 -321 -300 -2851 -285 -289"/>
    </vehicle>
    <vehicle id="4.21" type="car" depart="28999.05">
        <route edges="-292 -288 -2881 -287"/>
    </vehicle>
    <vehicle id="7.3" type="car" depart="29000.88">
        <route edges="-325 -300 -2851 -285 -289"/>
    </vehicle>
    <vehicle id="3.7" type="car" depart="29001.67">
        <route edges="-324 -293 -299"/>
    </vehicle>
    <vehicle id="11.14" type="car" depart="29002.95">
        <route edges="-308 -307 -327 -3271 -281 -315 -3151 -321 -300 -2851 -285 -289"/>
    </vehicle>
    <vehicle id="11.15" type="car" depart="29003.15">
        <route edges="-308 -304"/>
    </vehicle>
    <vehicle id="2.31" type="car" depart="29003.31">
        <route edges="-312 -293 -299"/>
    </vehicle>
    <vehicle id="15.2" type="car" depart="29003.31">
        <route edges="-330 -328 -304"/>
    </vehicle>
    <vehicle id="14.7" type="car" depart="29003.42">
        <route edges="-320 -3221 -322 -314"/>
    </vehicle>
    <vehicle id="12.13" type="car" depart="29004.95">
        <route edges="-326 -307 -327 -3271 -281 -315 -3151 -321 -300 -2851 -285 -289"/>
    </vehicle>
    <vehicle id="16.9" type="car" depart="29005.29">
        <route edges="-331 -297 -288 -2881 -287"/>
    </vehicle>
    <vehicle id="5.48" type="car" depart="29005.47">
        <route edges="-310 -287"/>
    </vehicle>
    <vehicle id="5.49" type="car" depart="29005.50">
        <route edges="-310 -286 -302 -323"/>
    </vehicle>
    <vehicle id="12.14" type="car" depart="29006.67">
        <route edges="-326 -307 -329"/>
    </vehicle>
    <vehicle id="12.15" type="car" depart="29006.80">
        <route edges="-326 -304"/>
    </vehicle>
    <vehicle id="4.22" type="car" depart="29007.55">
        <route edges="-292 -288 -2881 -287"/>
    </vehicle>
    <vehicle id="11.16" type="car" depart="29007.58">
        <route edges="-308 -307 -327 -3271 -281 -315 -3151 -321 -300 -2851 -285 -289"/>
    </vehicle>
    <vehicle id="4.23" type="car" depart="29007.72">
        <route edges="-292 -288 -2881 -287"/>
    </vehicle>
    <vehicle id="12.16" type="car" depart="29007.99">
        <route edges="-326 -307 -327 -3271 -281 -315 -3151 -321 -300 -2851 -285 -289"/>
    </vehicle>
    <vehicle id="16.10" type="car" depart="29008.04">
        <route edges="-331 -297 -288 -2881 -287"/>
    </vehicle>
    <vehicle id="5.50" type="car" depart="29009.51">
        <route edges="-310 -2851 -285 -289"/>
    </vehicle>
    <vehicle id="9.5" type="car" depart="29009.77">
        <route edges="-318 -282"/>
    </vehicle>
    <vehicle id="10.36" type="car" depart="29010.76">
        <route edges="-2801 -280 -307 -329"/>
    </vehicle>
    <vehicle id="6.6" type="car" depart="29011.05">
        <route edges="-319 -300 -2851 -285 -289"/>
    </vehicle>
    <vehicle id="4.24" type="car" depart="29012.57">
        <route edges="-292 -288 -2881 -287"/>
    </vehicle>