<?xml version='1.0' encoding='utf-8'?>
<nodes>
  <node id="202556079" x="-85.1548888" y="35.0421493" type="priority"/>
  <node id="202556079" x="-85.1548888" y="35.0421493" type="traffic_light"/>
  <node id="202678527" x="-85.1540362" y="35.0417989" type="priority"/>
  <node id="202678527" x="-85.1540362" y="35.0417989" type="traffic_light"/>
  <node id="459314290" x="-85.1528525" y="35.0451888" type="priority"/>
  <node id="202568610" x="-85.1569073" y="35.0428949" type="priority"/>
  <node id="202568610" x="-85.1569073" y="35.0428949" type="traffic_light"/>
  <node id="202648848" x="-85.1572817" y="35.0430155" type="priority"/>
  <node id="202568603" x="-85.1586195" y="35.0401373" type="priority"/>
  <node id="202568614" x="-85.1531288" y="35.0452933" type="priority"/>
  <node id="202626202" x="-85.1581401" y="35.0433169" type="priority"/>
  <node id="202626202" x="-85.1581401" y="35.0433169" type="traffic_light"/>
  <node id="6715014168" x="-85.1583549" y="35.0433962" type="priority"/>
  <node id="7169022636" x="-85.1573438" y="35.0440952" type="priority"/>
  <node id="3583810132" x="-85.1610089" y="35.0425941" type="priority"/>
  <node id="7830952583" x="-85.1588082" y="35.0418117" type="priority"/>
  <node id="7043231282" x="-85.153693" y="35.0416725" type="priority"/>
  <node id="7043231275" x="-85.154462" y="35.0410986" type="priority"/>
  <node id="7210975134" x="-85.1533069" y="35.0432473" type="priority"/>
  <node id="202698315" x="-85.1500137" y="35.0403425" type="priority"/>
  <node id="202698315" x="-85.1500137" y="35.0403425" type="traffic_light"/>
  <node id="7564605312" x="-85.1505936" y="35.0405545" type="priority"/>
  <node id="7564605307" x="-85.1497966" y="35.0407819" type="priority"/>
  <node id="202748867" x="-85.1518356" y="35.0369808" type="priority"/>
  <node id="202748867" x="-85.1518356" y="35.0369808" type="traffic_light"/>
  <node id="1717049910" x="-85.1459959" y="35.0388868" type="priority"/>
  <node id="1717049910" x="-85.1459959" y="35.0388868" type="traffic_light"/>
  <node id="459314276" x="-85.1594092" y="35.0391588" type="priority"/>
  <node id="1717049926" x="-85.1515495" y="35.0409027" type="priority"/>
  <node id="6715816106" x="-85.151645" y="35.0407298" type="priority"/>
  <node id="6715816100" x="-85.1520259" y="35.0410744" type="priority"/>
  <node id="7043048342" x="-85.1511623" y="35.0416339" type="priority"/>
  <node id="6715816102" x="-85.1521126" y="35.0408809" type="priority"/>
  <node id="7043231278" x="-85.1538072" y="35.0414628" type="priority"/>
  <node id="7564605313" x="-85.1505429" y="35.0407239" type="priority"/>
</nodes>
