<?xml version="1.0" encoding="UTF-8"?>

<!-- generated on 2025-05-29 17:14:03 by Eclipse SUMO jtrrouter Version 1.21.0
<jtrrouterConfiguration xmlns:xsi="http://www.w3.org/2001/XMLSchema-instance" xsi:noNamespaceSchemaLocation="http://sumo.dlr.de/xsd/jtrrouterConfiguration.xsd">

    <input>
        <net-file value="c:/Users/xh8/ornl_work/github_workspace/Real-Twin-Dev/datasets/tss/output/SUMO/behavior/chatt.net.xml"/>
        <route-files value="c:/Users/xh8/ornl_work/github_workspace/Real-Twin-Dev/datasets/tss/output/SUMO/behavior/chatt.flow.xml"/>
        <turn-ratio-files value="c:/Users/xh8/ornl_work/github_workspace/Real-Twin-Dev/datasets/tss/output/SUMO/behavior/chatt.turn.xml"/>
    </input>

    <output>
        <output-file value="c:/Users/xh8/ornl_work/github_workspace/Real-Twin-Dev/datasets/tss/output/SUMO/behavior/chatt.rou.xml"/>
    </output>

    <processing>
        <randomize-flows value="true"/>
        <remove-loops value="True"/>
        <accept-all-destinations value="true"/>
    </processing>

</jtrrouterConfiguration>
-->

<routes xmlns:xsi="http://www.w3.org/2001/XMLSchema-instance" xsi:noNamespaceSchemaLocation="http://sumo.dlr.de/xsd/routes_file.xsd">
    <vType id="car" minGap="2.50" accel="2.6" decel="4.5" emergencyDecel="8.642800377232396" sigma="0.6035253884715395" tau="1.0018562306861574"/>
    <vehicle id="2.0" type="car" depart="28800.56">
        <route edges="-97 -95 -98"/>
    </vehicle>
    <vehicle id="1.0" type="car" depart="28800.79">
        <route edges="-90 -96 -101"/>
    </vehicle>
    <vehicle id="2.1" type="car" depart="28803.84">
        <route edges="-97 -95 -100 -107 -104 -102 -94"/>
    </vehicle>
    <vehicle id="1.1" type="car" depart="28806.36">
        <route edges="-90 -96 -101"/>
    </vehicle>
    <vehicle id="1.2" type="car" depart="28807.38">
        <route edges="-90 -96 -101"/>
    </vehicle>
    <vehicle id="4.0" type="car" depart="28807.90">
        <route edges="-92 -99 -93"/>
    </vehicle>
    <vehicle id="1.3" type="car" depart="28809.74">
        <route edges="-90 -96 -101"/>
    </vehicle>
    <vehicle id="1.4" type="car" depart="28813.56">
        <route edges="-90 -94"/>
    </vehicle>
    <vehicle id="4.1" type="car" depart="28815.72">
        <route edges="-92 -99 -94"/>
    </vehicle>
    <vehicle id="2.2" type="car" depart="28816.72">
        <route edges="-97 -96 -103 -105 -106 -99 -94"/>
    </vehicle>
    <vehicle id="3.0" type="car" depart="28817.50">
        <route edges="-91 -102 -94"/>
    </vehicle>
    <vehicle id="1.5" type="car" depart="28818.13">
        <route edges="-90 -96 -101"/>
    </vehicle>
    <vehicle id="1.6" type="car" depart="28818.39">
        <route edges="-90 -96 -101"/>
    </vehicle>
    <vehicle id="2.3" type="car" depart="28818.68">
        <route edges="-97 -96 -101"/>
    </vehicle>
    <vehicle id="1.7" type="car" depart="28819.60">
        <route edges="-90 -94"/>
    </vehicle>
    <vehicle id="3.1" type="car" depart="28822.71">
        <route edges="-91 -102 -93"/>
    </vehicle>
    <vehicle id="1.8" type="car" depart="28825.67">
        <route edges="-90 -96 -101"/>
    </vehicle>
    <vehicle id="1.9" type="car" depart="28827.48">
        <route edges="-90 -96 -101"/>
    </vehicle>
    <vehicle id="2.4" type="car" depart="28830.86">
        <route edges="-97 -96 -101"/>
    </vehicle>
    <vehicle id="1.10" type="car" depart="28833.65">
        <route edges="-90 -96 -101"/>
    </vehicle>
    <vehicle id="1.11" type="car" depart="28835.86">
        <route edges="-90 -96 -101"/>
    </vehicle>
    <vehicle id="1.12" type="car" depart="28837.69">
        <route edges="-90 -96 -103 -105 -106 -99 -94"/>
    </vehicle>
    <vehicle id="2.5" type="car" depart="28838.04">
        <route edges="-97 -95 -100 -107 -104 -102 -94"/>
    </vehicle>
    <vehicle id="2.6" type="car" depart="28839.99">
        <route edges="-97 -96 -101"/>
    </vehicle>
    <vehicle id="1.13" type="car" depart="28840.24">
        <route edges="-90 -96 -103 -105 -106 -99 -94"/>
    </vehicle>
    <vehicle id="1.14" type="car" depart="28841.55">
        <route edges="-90 -96 -101"/>
    </vehicle>
    <vehicle id="2.7" type="car" depart="28842.16">
        <route edges="-97 -95 -100 -107 -104 -102 -93"/>
    </vehicle>
    <vehicle id="2.8" type="car" depart="28847.01">
        <route edges="-97 -96 -101"/>
    </vehicle>
    <vehicle id="1.15" type="car" depart="28852.36">
        <route edges="-90 -96 -101"/>
    </vehicle>
    <vehicle id="1.16" type="car" depart="28855.65">
        <route edges="-90 -96 -103 -105 -106 -99 -94"/>
    </vehicle>
    <vehicle id="1.17" type="car" depart="28857.85">
        <route edges="-90 -96 -103 -105 -106 -99 -94"/>
    </vehicle>
    <vehicle id="1.18" type="car" depart="28863.58">
        <route edges="-90 -96 -101"/>
    </vehicle>
    <vehicle id="3.2" type="car" depart="28865.06">
        <route edges="-91 -102 -93"/>
    </vehicle>
    <vehicle id="2.9" type="car" depart="28867.68">
        <route edges="-97 -95 -100 -107 -104 -101"/>
    </vehicle>
    <vehicle id="1.19" type="car" depart="28869.48">
        <route edges="-90 -96 -101"/>
    </vehicle>
    <vehicle id="1.20" type="car" depart="28872.60">
        <route edges="-90 -96 -101"/>
    </vehicle>
    <vehicle id="1.21" type="car" depart="28880.26">
        <route edges="-90 -96 -101"/>
    </vehicle>
    <vehicle id="3.3" type="car" depart="28881.63">
        <route edges="-91 -102 -93"/>
    </vehicle>
    <vehicle id="1.22" type="car" depart="28882.19">
        <route edges="-90 -96 -101"/>
    </vehicle>
    <vehicle id="1.23" type="car" depart="28883.60">
        <route edges="-90 -96 -103 -105 -106 -99 -94"/>
    </vehicle>
    <vehicle id="2.10" type="car" depart="28889.60">
        <route edges="-97 -96 -103 -105 -106 -99 -94"/>
    </vehicle>
    <vehicle id="4.2" type="car" depart="28889.94">
        <route edges="-92 -99 -96 -101"/>
    </vehicle>
    <vehicle id="1.24" type="car" depart="28898.13">
        <route edges="-90 -96 -101"/>
    </vehicle>
    <vehicle id="2.11" type="car" depart="28900.63">
        <route edges="-97 -95 -100 -107 -104 -102 -94"/>
    </vehicle>
    <vehicle id="2.12" type="car" depart="28900.72">
        <route edges="-97 -96 -101"/>
    </vehicle>
    <vehicle id="1.25" type="car" depart="28901.67">
        <route edges="-90 -96 -101"/>
    </vehicle>
    <vehicle id="2.13" type="car" depart="28906.81">
        <route edges="-97 -96 -103 -105 -106 -99 -94"/>
    </vehicle>
    <vehicle id="4.3" type="car" depart="28907.79">
        <route edges="-92 -99 -94"/>
    </vehicle>
    <vehicle id="1.26" type="car" depart="28907.83">
        <route edges="-90 -96 -101"/>
    </vehicle>
    <vehicle id="1.27" type="car" depart="28908.52">
        <route edges="-90 -96 -101"/>
    </vehicle>
    <vehicle id="3.4" type="car" depart="28908.63">
        <route edges="-91 -102 -93"/>
    </vehicle>
    <vehicle id="3.5" type="car" depart="28914.32">
        <route edges="-91 -102 -93"/>
    </vehicle>
    <vehicle id="1.28" type="car" depart="28915.58">
        <route edges="-90 -95 -100 -107 -104 -102 -94"/>
    </vehicle>
    <vehicle id="3.6" type="car" depart="28915.96">
        <route edges="-91 -102 -93"/>
    </vehicle>
    <vehicle id="4.4" type="car" depart="28916.59">
        <route edges="-92 -99 -94"/>
    </vehicle>
    <vehicle id="2.14" type="car" depart="28917.27">
        <route edges="-97 -95 -100 -107 -104 -102 -93"/>
    </vehicle>
    <vehicle id="1.29" type="car" depart="28921.78">
        <route edges="-90 -96 -101"/>
    </vehicle>
    <vehicle id="1.30" type="car" depart="28922.15">
        <route edges="-90 -96 -101"/>
    </vehicle>
    <vehicle id="1.31" type="car" depart="28925.46">
        <route edges="-90 -96 -101"/>
    </vehicle>
    <vehicle id="4.5" type="car" depart="28928.54">
        <route edges="-92 -99 -94"/>
    </vehicle>
    <vehicle id="1.32" type="car" depart="28928.73">
        <route edges="-90 -94"/>
    </vehicle>
    <vehicle id="4.6" type="car" depart="28932.74">
        <route edges="-92 -99 -94"/>
    </vehicle>
    <vehicle id="2.15" type="car" depart="28934.92">
        <route edges="-97 -96 -101"/>
    </vehicle>
    <vehicle id="1.33" type="car" depart="28936.13">
        <route edges="-90 -94"/>
    </vehicle>
    <vehicle id="3.7" type="car" depart="28938.09">
        <route edges="-91 -102 -93"/>
    </vehicle>
    <vehicle id="1.34" type="car" depart="28942.39">
        <route edges="-90 -96 -101"/>
    </vehicle>
    <vehicle id="2.16" type="car" depart="28942.95">
        <route edges="-97 -96 -103 -105 -106 -98"/>
    </vehicle>
    <vehicle id="3.8" type="car" depart="28943.83">
        <route edges="-91 -102 -94"/>
    </vehicle>
    <vehicle id="4.7" type="car" depart="28947.41">
        <route edges="-92 -99 -94"/>
    </vehicle>
    <vehicle id="1.35" type="car" depart="28951.18">
        <route edges="-90 -96 -101"/>
    </vehicle>
    <vehicle id="4.8" type="car" depart="28951.45">
        <route edges="-92 -100 -107 -104 -102 -93"/>
    </vehicle>
    <vehicle id="1.36" type="car" depart="28955.65">
        <route edges="-90 -96 -101"/>
    </vehicle>
    <vehicle id="2.17" type="car" depart="28956.05">
        <route edges="-97 -95 -100 -107 -104 -102 -93"/>
    </vehicle>
    <vehicle id="2.18" type="car" depart="28956.93">
        <route edges="-97 -96 -101"/>
    </vehicle>
    <vehicle id="3.9" type="car" depart="28958.33">
        <route edges="-91 -102 -93"/>
    </vehicle>
    <vehicle id="1.37" type="car" depart="28958.69">
        <route edges="-90 -96 -101"/>
    </vehicle>
    <vehicle id="1.38" type="car" depart="28962.06">
        <route edges="-90 -96 -101"/>
    </vehicle>
    <vehicle id="1.39" type="car" depart="28963.02">
        <route edges="-90 -96 -101"/>
    </vehicle>
    <vehicle id="3.10" type="car" depart="28967.02">
        <route edges="-91 -102 -93"/>
    </vehicle>
    <vehicle id="1.40" type="car" depart="28967.24">
        <route edges="-90 -96 -101"/>
    </vehicle>
    <vehicle id="1.41" type="car" depart="28968.77">
        <route edges="-90 -94"/>
    </vehicle>
    <vehicle id="1.42" type="car" depart="28969.47">
        <route edges="-90 -96 -101"/>
    </vehicle>
    <vehicle id="2.19" type="car" depart="28969.75">
        <route edges="-97 -96 -101"/>
    </vehicle>
    <vehicle id="2.20" type="car" depart="28971.81">
        <route edges="-97 -96 -101"/>
    </vehicle>
    <vehicle id="2.21" type="car" depart="28973.47">
        <route edges="-97 -96 -101"/>
    </vehicle>
    <vehicle id="2.22" type="car" depart="28974.43">
        <route edges="-97 -96 -101"/>
    </vehicle>
    <vehicle id="1.43" type="car" depart="28979.74">
        <route edges="-90 -96 -101"/>
    </vehicle>
    <vehicle id="2.23" type="car" depart="28980.55">
        <route edges="-97 -96 -101"/>
    </vehicle>
    <vehicle id="3.11" type="car" depart="28981.36">
        <route edges="-91 -102 -94"/>
    </vehicle>
    <vehicle id="2.24" type="car" depart="28981.72">
        <route edges="-97 -96 -101"/>
    </vehicle>
    <vehicle id="1.44" type="car" depart="28982.59">
        <route edges="-90 -95 -100 -107 -104 -102 -93"/>
    </vehicle>
    <vehicle id="2.25" type="car" depart="28986.01">
        <route edges="-97 -95 -100 -107 -104 -102 -94"/>
    </vehicle>
    <vehicle id="1.45" type="car" depart="28988.13">
        <route edges="-90 -96 -101"/>
    </vehicle>
    <vehicle id="2.26" type="car" depart="28989.35">
        <route edges="-97 -96 -101"/>
    </vehicle>
    <vehicle id="1.46" type="car" depart="28990.33">
        <route edges="-90 -96 -101"/>
    </vehicle>
    <vehicle id="3.12" type="car" depart="28996.41">
        <route edges="-91 -102 -93"/>
    </vehicle>
    <vehicle id="2.27" type="car" depart="28999.05">
        <route edges="-97 -95 -100 -107 -104 -102 -94"/>
    </vehicle>
    <vehicle id="1.47" type="car" depart="29001.67">
        <route edges="-90 -96 -101"/>
    </vehicle>
    <vehicle id="1.48" type="car" depart="29003.31">
        <route edges="-90 -96 -101"/>
    </vehicle>
    <vehicle id="1.49" type="car" depart="29007.55">
        <route edges="-90 -96 -101"/>
    </vehicle>
    <vehicle id="1.50" type="car" depart="29007.72">
        <route edges="-90 -96 -101"/>
    </vehicle>
    <vehicle id="2.28" type="car" depart="29009.51">
        <route edges="-97 -96 -101"/>
    </vehicle>
    <vehicle id="1.51" type="car" depart="29012.57">
        <route edges="-90 -96 -103 -105 -106 -99 -93"/>
    </vehicle>
    <vehicle id="1.52" type="car" depart="29016.11">
        <route edges="-90 -94"/>
    </vehicle>
    <vehicle id="1.53" type="car" depart="29017.73">
        <route edges="-90 -96 -101"/>
    </vehicle>
    <vehicle id="2.29" type="car" depart="29018.29">
        <route edges="-97 -95 -100 -107 -104 -102 -94"/>
    </vehicle>
    <vehicle id="2.30" type="car" depart="29019.63">
        <route edges="-97 -96 -101"/>
    </vehicle>
    <vehicle id="2.31" type="car" depart="29020.63">
        <route edges="-97 -96 -101"/>
    </vehicle>
    <vehicle id="1.54" type="car" depart="29021.44">
        <route edges="-90 -96 -101"/>
    </vehicle>
    <vehicle id="1.55" type="car" depart="29033.82">
        <route edges="-90 -96 -103 -105 -106 -99 -94"/>
    </vehicle>
    <vehicle id="1.56" type="car" depart="29033.84">
        <route edges="-90 -96 -103 -105 -106 -99 -94"/>
    </vehicle>
    <vehicle id="1.57" type="car" depart="29034.93">
        <route edges="-90 -94"/>
    </vehicle>
    <vehicle id="1.58" type="car" depart="29035.24">
        <route edges="-90 -96 -101"/>
    </vehicle>
    <vehicle id="2.32" type="car" depart="29035.89">
        <route edges="-97 -96 -101"/>
    </vehicle>
    <vehicle id="1.59" type="car" depart="29035.96">
        <route edges="-90 -96 -101"/>
    </vehicle>
    <vehicle id="1.60" type="car" depart="29038.38">
        <route edges="-90 -96 -101"/>
    </vehicle>
    <vehicle id="2.33" type="car" depart="29038.57">
        <route edges="-97 -95 -100 -107 -104 -102 -94"/>
    </vehicle>
    <vehicle id="2.34" type="car" depart="29038.84">
        <route edges="-97 -93"/>
    </vehicle>
    <vehicle id="1.61" type="car" depart="29043.98">
        <route edges="-90 -94"/>
    </vehicle>
    <vehicle id="3.13" type="car" depart="29045.05">
        <route edges="-91 -102 -93"/>
    </vehicle>
    <vehicle id="1.62" type="car" depart="29053.63">
        <route edges="-90 -96 -101"/>
    </vehicle>
    <vehicle id="4.9" type="car" depart="29054.58">
        <route edges="-92 -99 -96 -101"/>
    </vehicle>
    <vehicle id="1.63" type="car" depart="29062.10">
        <route edges="-90 -95 -98"/>
    </vehicle>
    <vehicle id="2.35" type="car" depart="29063.89">
        <route edges="-97 -93"/>
    </vehicle>
    <vehicle id="2.36" type="car" depart="29071.96">
        <route edges="-97 -93"/>
    </vehicle>
    <vehicle id="2.37" type="car" depart="29076.26">
        <route edges="-97 -96 -103 -105 -106 -99 -94"/>
    </vehicle>
    <vehicle id="1.64" type="car" depart="29079.36">
        <route edges="-90 -94"/>
    </vehicle>
    <vehicle id="2.38" type="car" depart="29087.85">
        <route edges="-97 -95 -98"/>
    </vehicle>
    <vehicle id="2.39" type="car" depart="29089.55">
        <route edges="-97 -96 -101"/>
    </vehicle>
    <vehicle id="2.40" type="car" depart="29090.01">
        <route edges="-97 -95 -100 -107 -104 -102 -94"/>
    </vehicle>
    <vehicle id="1.65" type="car" depart="29097.49">
        <route edges="-90 -96 -101"/>
    </vehicle>
    <vehicle id="2.41" type="car" depart="29104.24">
        <route edges="-97 -95 -98"/>
    </vehicle>
    <vehicle id="2.42" type="car" depart="29104.58">
        <route edges="-97 -95 -100 -107 -104 -102 -94"/>
    </vehicle>
    <vehicle id="1.66" type="car" depart="29105.35">
        <route edges="-90 -96 -101"/>
    </vehicle>
    <vehicle id="1.67" type="car" depart="29105.79">
        <route edges="-90 -96 -101"/>
    </vehicle>
    <vehicle id="2.43" type="car" depart="29107.09">
        <route edges="-97 -95 -100 -107 -104 -102 -94"/>
    </vehicle>
    <vehicle id="2.44" type="car" depart="29108.16">
        <route edges="-97 -96 -101"/>
    </vehicle>
    <vehicle id="2.45" type="car" depart="29110.25">
        <route edges="-97 -96 -103 -105 -106 -99 -94"/>
    </vehicle>
    <vehicle id="4.10" type="car" depart="29111.58">
        <route edges="-92 -99 -94"/>
    </vehicle>
    <vehicle id="3.14" type="car" depart="29115.31">
        <route edges="-91 -102 -93"/>
    </vehicle>
    <vehicle id="4.11" type="car" depart="29115.53">
        <route edges="-92 -99 -94"/>
    </vehicle>
    <vehicle id="1.68" type="car" depart="29118.11">
        <route edges="-90 -96 -101"/>
    </vehicle>
    <vehicle id="1.69" type="car" depart="29118.99">
        <route edges="-90 -96 -101"/>
    </vehicle>
    <vehicle id="3.15" type="car" depart="29119.46">
        <route edges="-91 -102 -93"/>
    </vehicle>
    <vehicle id="2.46" type="car" depart="29119.61">
        <route edges="-97 -96 -101"/>
    </vehicle>
    <vehicle id="2.47" type="car" depart="29122.82">
        <route edges="-97 -96 -101"/>
    </vehicle>
    <vehicle id="1.70" type="car" depart="29124.10">
        <route edges="-90 -94"/>
    </vehicle>
    <vehicle id="2.48" type="car" depart="29125.69">
        <route edges="-97 -96 -103 -105 -106 -99 -94"/>
    </vehicle>
    <vehicle id="4.12" type="car" depart="29126.23">
        <route edges="-92 -99 -94"/>
    </vehicle>
    <vehicle id="4.13" type="car" depart="29134.23">
        <route edges="-92 -99 -96 -101"/>
    </vehicle>
    <vehicle id="1.71" type="car" depart="29139.17">
        <route edges="-90 -96 -103 -105 -106 -99 -94"/>
    </vehicle>
    <vehicle id="2.49" type="car" depart="29143.65">
        <route edges="-97 -96 -101"/>
    </vehicle>
    <vehicle id="1.72" type="car" depart="29145.45">
        <route edges="-90 -96 -103 -105 -106 -99 -93"/>
    </vehicle>
    <vehicle id="1.73" type="car" depart="29145.66">
        <route edges="-90 -96 -101"/>
    </vehicle>
    <vehicle id="4.14" type="car" depart="29150.56">
        <route edges="-92 -99 -93"/>
    </vehicle>
    <vehicle id="3.16" type="car" depart="29152.22">
        <route edges="-91 -102 -94"/>
    </vehicle>
    <vehicle id="1.74" type="car" depart="29152.32">
        <route edges="-90 -94"/>
    </vehicle>
    <vehicle id="1.75" type="car" depart="29153.09">
        <route edges="-90 -96 -101"/>
    </vehicle>
    <vehicle id="2.50" type="car" depart="29154.87">
        <route edges="-97 -95 -100 -107 -104 -102 -94"/>
    </vehicle>
    <vehicle id="3.17" type="car" depart="29159.21">
        <route edges="-91 -102 -94"/>
    </vehicle>
    <vehicle id="1.76" type="car" depart="29163.29">
        <route edges="-90 -96 -103 -105 -106 -99 -94"/>
    </vehicle>
    <vehicle id="2.51" type="car" depart="29163.53">
        <route edges="-97 -96 -101"/>
    </vehicle>
    <vehicle id="2.52" type="car" depart="29163.58">
        <route edges="-97 -96 -101"/>
    </vehicle>
    <vehicle id="2.53" type="car" depart="29168.74">
        <route edges="-97 -96 -101"/>
    </vehicle>
    <vehicle id="2.54" type="car" depart="29168.78">
        <route edges="-97 -96 -103 -105 -106 -99 -93"/>
    </vehicle>
    <vehicle id="3.18" type="car" depart="29170.79">
        <route edges="-91 -102 -94"/>
    </vehicle>
    <vehicle id="2.55" type="car" depart="29174.58">
        <route edges="-97 -96 -103 -105 -106 -99 -93"/>
    </vehicle>
    <vehicle id="3.19" type="car" depart="29177.98">
        <route edges="-91 -102 -95 -98"/>
    </vehicle>
    <vehicle id="1.77" type="car" depart="29181.92">
        <route edges="-90 -96 -101"/>
    </vehicle>
    <vehicle id="2.56" type="car" depart="29182.76">
        <route edges="-97 -95 -100 -107 -104 -102 -94"/>
    </vehicle>
    <vehicle id="2.57" type="car" depart="29182.85">
        <route edges="-97 -95 -100 -107 -104 -102 -93"/>
    </vehicle>
    <vehicle id="1.78" type="car" depart="29186.17">
        <route edges="-90 -96 -103 -105 -106 -99 -94"/>
    </vehicle>
    <vehicle id="4.15" type="car" depart="29188.70">
        <route edges="-92 -99 -96 -101"/>
    </vehicle>
    <vehicle id="4.16" type="car" depart="29190.27">
        <route edges="-92 -100 -107 -104 -102 -93"/>
    </vehicle>
    <vehicle id="1.79" type="car" depart="29190.93">
        <route edges="-90 -96 -103 -105 -106 -99 -94"/>
    </vehicle>
    <vehicle id="2.58" type="car" depart="29194.04">
        <route edges="-97 -96 -101"/>
    </vehicle>
    <vehicle id="2.59" type="car" depart="29197.95">
        <route edges="-97 -96 -101"/>
    </vehicle>
    <vehicle id="1.80" type="car" depart="29197.98">
        <route edges="-90 -96 -101"/>
    </vehicle>
    <vehicle id="3.20" type="car" depart="29198.48">
        <route edges="-91 -102 -93"/>
    </vehicle>
    <vehicle id="2.60" type="car" depart="29199.76">
        <route edges="-97 -96 -101"/>
    </vehicle>
    <vehicle id="1.81" type="car" depart="29199.84">
        <route edges="-90 -96 -101"/>
    </vehicle>
    <vehicle id="1.82" type="car" depart="29200.80">
        <route edges="-90 -96 -101"/>
    </vehicle>
    <vehicle id="1.83" type="car" depart="29201.16">
        <route edges="-90 -96 -101"/>
    </vehicle>
    <vehicle id="1.84" type="car" depart="29201.49">
        <route edges="-90 -95 -100 -107 -104 -102 -94"/>
    </vehicle>
    <vehicle id="2.61" type="car" depart="29207.58">
        <route edges="-97 -93"/>
    </vehicle>
    <vehicle id="1.85" type="car" depart="29210.45">
        <route edges="-90 -96 -101"/>
    </vehicle>
    <vehicle id="1.86" type="car" depart="29210.68">
        <route edges="-90 -96 -101"/>
    </vehicle>
    <vehicle id="4.17" type="car" depart="29216.30">
        <route edges="-92 -99 -96 -101"/>
    </vehicle>
    <vehicle id="2.62" type="car" depart="29217.29">
        <route edges="-97 -96 -101"/>
    </vehicle>
    <vehicle id="1.87" type="car" depart="29220.07">
        <route edges="-90 -96 -103 -105 -106 -99 -94"/>
    </vehicle>
    <vehicle id="3.21" type="car" depart="29221.53">
        <route edges="-91 -102 -94"/>
    </vehicle>
    <vehicle id="4.18" type="car" depart="29223.59">
        <route edges="-92 -99 -93"/>
    </vehicle>
    <vehicle id="1.88" type="car" depart="29223.68">
        <route edges="-90 -96 -101"/>
    </vehicle>
    <vehicle id="4.19" type="car" depart="29224.84">
        <route edges="-92 -99 -96 -103 -105 -106 -98"/>
    </vehicle>
    <vehicle id="2.63" type="car" depart="29225.96">
        <route edges="-97 -95 -100 -107 -104 -102 -94"/>
    </vehicle>
    <vehicle id="4.20" type="car" depart="29227.36">
        <route edges="-92 -99 -94"/>
    </vehicle>
    <vehicle id="1.89" type="car" depart="29227.60">
        <route edges="-90 -94"/>
    </vehicle>
    <vehicle id="1.90" type="car" depart="29231.37">
        <route edges="-90 -96 -101"/>
    </vehicle>
    <vehicle id="3.22" type="car" depart="29231.65">
        <route edges="-91 -102 -93"/>
    </vehicle>
    <vehicle id="1.91" type="car" depart="29233.86">
        <route edges="-90 -96 -101"/>
    </vehicle>
    <vehicle id="1.92" type="car" depart="29233.87">
        <route edges="-90 -96 -101"/>
    </vehicle>
    <vehicle id="1.93" type="car" depart="29236.43">
        <route edges="-90 -96 -101"/>
    </vehicle>
    <vehicle id="2.64" type="car" depart="29238.42">
        <route edges="-97 -96 -101"/>
    </vehicle>
    <vehicle id="1.94" type="car" depart="29239.25">
        <route edges="-90 -96 -101"/>
    </vehicle>
    <vehicle id="2.65" type="car" depart="29240.35">
        <route edges="-97 -93"/>
    </vehicle>
    <vehicle id="1.95" type="car" depart="29247.19">
        <route edges="-90 -96 -101"/>
    </vehicle>
    <vehicle id="1.96" type="car" depart="29248.25">
        <route edges="-90 -96 -101"/>
    </vehicle>
    <vehicle id="2.66" type="car" depart="29248.66">
        <route edges="-97 -96 -101"/>
    </vehicle>
    <vehicle id="3.23" type="car" depart="29248.92">
        <route edges="-91 -102 -93"/>
    </vehicle>
    <vehicle id="2.67" type="car" depart="29249.19">
        <route edges="-97 -96 -101"/>
    </vehicle>
    <vehicle id="4.21" type="car" depart="29263.60">
        <route edges="-92 -99 -94"/>
    </vehicle>
    <vehicle id="2.68" type="car" depart="29264.22">
        <route edges="-97 -96 -101"/>
    </vehicle>
    <vehicle id="1.97" type="car" depart="29269.07">
        <route edges="-90 -96 -101"/>
    </vehicle>
    <vehicle id="1.98" type="car" depart="29269.38">
        <route edges="-90 -96 -101"/>
    </vehicle>
    <vehicle id="4.22" type="car" depart="29270.10">
        <route edges="-92 -99 -96 -101"/>
    </vehicle>
    <vehicle id="2.69" type="car" depart="29274.44">
        <route edges="-97 -95 -100 -107 -104 -102 -93"/>
    </vehicle>
    <vehicle id="1.99" type="car" depart="29276.04">
        <route edges="-90 -96 -101"/>
    </vehicle>
    <vehicle id="1.100" type="car" depart="29276.94">
        <route edges="-90 -96 -101"/>
    </vehicle>
    <vehicle id="1.101" type="car" depart="29277.63">
        <route edges="-90 -96 -101"/>
    </vehicle>
    <vehicle id="2.70" type="car" depart="29284.43">
        <route edges="-97 -96 -103 -105 -106 -99 -94"/>
    </vehicle>
    <vehicle id="4.23" type="car" depart="29284.74">
        <route edges="-92 -99 -94"/>
    </vehicle>
    <vehicle id="2.71" type="car" depart="29285.72">
        <route edges="-97 -93"/>
    </vehicle>
    <vehicle id="1.102" type="car" depart="29287.56">
        <route edges="-90 -96 -101"/>
    </vehicle>
    <vehicle id="4.24" type="car" depart="29288.60">
        <route edges="-92 -100 -107 -104 -102 -94"/>
    </vehicle>
    <vehicle id="1.103" type="car" depart="29289.85">
        <route edges="-90 -96 -101"/>
    </vehicle>
    <vehicle id="2.72" type="car" depart="29291.59">
        <route edges="-97 -95 -100 -107 -104 -102 -94"/>
    </vehicle>
    <vehicle id="1.104" type="car" depart="29292.83">
        <route edges="-90 -96 -101"/>
    </vehicle>
    <vehicle id="1.105" type="car" depart="29294.74">
        <route edges="-90 -96 -103 -105 -106 -99 -94"/>
    </vehicle>
    <vehicle id="3.24" type="car" depart="29306.14">
        <route edges="-91 -102 -95 -100 -107 -104 -101"/>
    </vehicle>
    <vehicle id="3.25" type="car" depart="29309.67">
        <route edges="-91 -102 -94"/>
    </vehicle>
    <vehicle id="1.106" type="car" depart="29311.61">
        <route edges="-90 -96 -101"/>
    </vehicle>
    <vehicle id="3.26" type="car" depart="29317.46">
        <route edges="-91 -102 -94"/>
    </vehicle>
    <vehicle id="2.73" type="car" depart="29323.55">
        <route edges="-97 -96 -101"/>
    </vehicle>
    <vehicle id="1.107" type="car" depart="29326.88">
        <route edges="-90 -96 -103 -105 -106 -99 -93"/>
    </vehicle>
    <vehicle id="1.108" type="car" depart="29327.81">
        <route edges="-90 -96 -101"/>
    </vehicle>
    <vehicle id="1.109" type="car" depart="29332.20">
        <route edges="-90 -96 -101"/>
    </vehicle>
    <vehicle id="1.110" type="car" depart="29334.60">
        <route edges="-90 -96 -101"/>
    </vehicle>
    <vehicle id="1.111" type="car" depart="29337.08">
        <route edges="-90 -96 -103 -105 -106 -99 -94"/>
    </vehicle>
    <vehicle id="1.112" type="car" depart="29342.30">
        <route edges="-90 -96 -101"/>
    </vehicle>
    <vehicle id="2.74" type="car" depart="29350.96">
        <route edges="-97 -96 -103 -105 -106 -98"/>
    </vehicle>
    <vehicle id="1.113" type="car" depart="29351.65">
        <route edges="-90 -94"/>
    </vehicle>
    <vehicle id="4.25" type="car" depart="29352.98">
        <route edges="-92 -99 -94"/>
    </vehicle>
    <vehicle id="1.114" type="car" depart="29355.59">
        <route edges="-90 -96 -103 -105 -106 -99 -94"/>
    </vehicle>
    <vehicle id="1.115" type="car" depart="29357.09">
        <route edges="-90 -96 -103 -105 -106 -99 -94"/>
    </vehicle>
    <vehicle id="3.27" type="car" depart="29358.98">
        <route edges="-91 -102 -94"/>
    </vehicle>
    <vehicle id="2.75" type="car" depart="29363.33">
        <route edges="-97 -96 -101"/>
    </vehicle>
    <vehicle id="3.28" type="car" depart="29372.23">
        <route edges="-91 -102 -93"/>
    </vehicle>
    <vehicle id="2.76" type="car" depart="29378.63">
        <route edges="-97 -93"/>
    </vehicle>
    <vehicle id="2.77" type="car" depart="29381.56">
        <route edges="-97 -96 -101"/>
    </vehicle>
    <vehicle id="3.29" type="car" depart="29383.38">
        <route edges="-91 -102 -94"/>
    </vehicle>
    <vehicle id="1.116" type="car" depart="29387.91">
        <route edges="-90 -96 -101"/>
    </vehicle>
    <vehicle id="1.117" type="car" depart="29387.99">
        <route edges="-90 -96 -101"/>
    </vehicle>
    <vehicle id="1.118" type="car" depart="29392.77">
        <route edges="-90 -96 -101"/>
    </vehicle>
    <vehicle id="1.119" type="car" depart="29393.77">
        <route edges="-90 -96 -101"/>
    </vehicle>
    <vehicle id="1.120" type="car" depart="29396.97">
        <route edges="-90 -96 -101"/>
    </vehicle>
    <vehicle id="1.121" type="car" depart="29397.95">
        <route edges="-90 -95 -100 -107 -104 -102 -94"/>
    </vehicle>
    <vehicle id="1.122" type="car" depart="29399.47">
        <route edges="-90 -94"/>
    </vehicle>
    <vehicle id="4.26" type="car" depart="29400.02">
        <route edges="-92 -100 -107 -104 -102 -93"/>
    </vehicle>
    <vehicle id="1.123" type="car" depart="29401.11">
        <route edges="-90 -96 -101"/>
    </vehicle>
    <vehicle id="1.124" type="car" depart="29402.15">
        <route edges="-90 -96 -101"/>
    </vehicle>
    <vehicle id="1.125" type="car" depart="29402.84">
        <route edges="-90 -96 -101"/>
    </vehicle>