<?xml version="1.0" encoding="UTF-8"?>

<!-- generated on 2025-05-27 15:05:51 by Eclipse SUMO netconvert Version 1.21.0
<netconvertConfiguration xmlns:xsi="http://www.w3.org/2001/XMLSchema-instance" xsi:noNamespaceSchemaLocation="http://sumo.dlr.de/xsd/netconvertConfiguration.xsd">

    <input>
        <node-files value="c:/Users/xh8/ornl_work/github_workspace/Real-Twin-Dev/datasets/chattanooga/output/OpenDrive/nodes.nod.xml"/>
        <edge-files value="c:/Users/xh8/ornl_work/github_workspace/Real-Twin-Dev/datasets/chattanooga/output/OpenDrive/edges.edg.xml"/>
    </input>

    <output>
        <output-file value="c:/Users/xh8/ornl_work/github_workspace/Real-Twin-Dev/datasets/chattanooga/output/OpenDrive/chatt.net.xml"/>
    </output>

    <projection>
        <proj.utm value="true"/>
    </projection>

    <processing>
        <roundabouts.guess value="true"/>
    </processing>

    <tls_building>
        <tls.discard-simple value="true"/>
        <tls.join value="true"/>
    </tls_building>

    <ramp_guessing>
        <ramps.guess value="true"/>
    </ramp_guessing>

    <report>
        <ignore-errors.edge-type value="true"/>
    </report>

</netconvertConfiguration>
-->

<net version="1.20" junctionCornerDetail="5" limitTurnSpeed="5.50" xmlns:xsi="http://www.w3.org/2001/XMLSchema-instance" xsi:noNamespaceSchemaLocation="http://sumo.dlr.de/xsd/net_file.xsd">

    <location netOffset="-667733.87,-3878705.38" convBoundary="0.00,0.00,1377.14,919.81" origBoundary="-85.161009,35.036981,-85.145996,35.045293" projParameter="+proj=utm +zone=16 +ellps=WGS84 +datum=WGS84 +units=m +no_defs"/>

    <edge id=":1717049910_0" function="internal">
        <lane id=":1717049910_0_0" index="0" speed="3.65" length="4.67" shape="1376.53,219.81 1377.94,220.10 1378.62,220.69 1378.55,221.58 1377.74,222.77"/>
    </edge>
    <edge id=":1717049926_0" function="internal">
        <lane id=":1717049926_0_0" index="0" speed="6.57" length="9.18" shape="868.98,445.69 867.69,443.57 866.00,442.36 863.94,442.08 861.49,442.72"/>
    </edge>
    <edge id=":1717049926_1" function="internal">
        <lane id=":1717049926_1_0" index="0" speed="23.34" length="20.85" shape="868.98,445.69 860.76,426.54"/>
    </edge>
    <edge id=":1717049926_2" function="internal">
        <lane id=":1717049926_2_0" index="0" speed="8.66" length="5.53" shape="868.98,445.69 867.43,440.64 867.43,440.40"/>
    </edge>
    <edge id=":1717049926_3" function="internal">
        <lane id=":1717049926_3_0" index="0" speed="3.65" length="1.44" shape="868.98,445.69 869.25,444.28"/>
    </edge>
    <edge id=":1717049926_18" function="internal">
        <lane id=":1717049926_18_0" index="0" speed="8.66" length="11.35" shape="867.43,440.40 867.48,436.54 869.14,433.40 872.41,431.21"/>
    </edge>
    <edge id=":1717049926_19" function="internal">
        <lane id=":1717049926_19_0" index="0" speed="3.65" length="3.23" shape="869.25,444.28 869.83,443.59 870.72,443.65 871.92,444.44"/>
    </edge>
    <edge id=":1717049926_4" function="internal">
        <lane id=":1717049926_4_0" index="0" speed="6.50" length="9.03" shape="874.89,437.10 872.77,438.38 871.57,440.03 871.29,442.05 871.92,444.44"/>
    </edge>
    <edge id=":1717049926_5" function="internal">
        <lane id=":1717049926_5_0" index="0" speed="15.74" length="14.53" shape="874.89,437.10 861.49,442.72"/>
        <lane id=":1717049926_5_1" index="1" speed="15.74" length="14.53" shape="873.65,434.15 860.26,439.77"/>
    </edge>
    <edge id=":1717049926_7" function="internal">
        <lane id=":1717049926_7_0" index="0" speed="8.72" length="16.93" shape="873.65,434.15 869.80,434.96 866.37,433.96 863.35,431.15 860.76,426.54"/>
    </edge>
    <edge id=":1717049926_8" function="internal">
        <lane id=":1717049926_8_0" index="0" speed="3.65" length="4.67" shape="873.65,434.15 872.23,433.88 871.55,433.30 871.61,432.41 872.41,431.21"/>
    </edge>
    <edge id=":1717049926_9" function="internal">
        <lane id=":1717049926_9_0" index="0" speed="6.57" length="9.16" shape="863.69,425.27 865.00,427.40 866.68,428.61 868.74,428.90 871.16,428.26"/>
    </edge>
    <edge id=":1717049926_10" function="internal">
        <lane id=":1717049926_10_0" index="0" speed="23.34" length="20.86" shape="863.69,425.27 871.92,444.44"/>
    </edge>
    <edge id=":1717049926_11" function="internal">
        <lane id=":1717049926_11_0" index="0" speed="8.65" length="5.59" shape="863.69,425.27 865.27,430.33 865.27,430.62"/>
    </edge>
    <edge id=":1717049926_12" function="internal">
        <lane id=":1717049926_12_0" index="0" speed="3.65" length="1.44" shape="863.69,425.27 863.44,426.69"/>
    </edge>
    <edge id=":1717049926_20" function="internal">
        <lane id=":1717049926_20_0" index="0" speed="8.65" length="11.34" shape="865.27,430.62 865.23,434.43 863.56,437.58 860.26,439.77"/>
    </edge>
    <edge id=":1717049926_21" function="internal">
        <lane id=":1717049926_21_0" index="0" speed="3.65" length="3.23" shape="863.44,426.69 862.86,427.37 861.97,427.32 860.76,426.54"/>
    </edge>
    <edge id=":1717049926_13" function="internal">
        <lane id=":1717049926_13_0" index="0" speed="6.48" length="9.03" shape="857.80,433.86 859.93,432.59 861.13,430.95 861.41,428.93 860.76,426.54"/>
    </edge>
    <edge id=":1717049926_14" function="internal">
        <lane id=":1717049926_14_0" index="0" speed="15.74" length="14.50" shape="857.80,433.86 871.16,428.26"/>
        <lane id=":1717049926_14_1" index="1" speed="15.74" length="14.50" shape="859.03,436.81 872.41,431.21"/>
    </edge>
    <edge id=":1717049926_16" function="internal">
        <lane id=":1717049926_16_0" index="0" speed="8.72" length="16.94" shape="859.03,436.81 862.90,436.01 866.35,437.01 869.35,439.82 871.92,444.44"/>
    </edge>
    <edge id=":1717049926_17" function="internal">
        <lane id=":1717049926_17_0" index="0" speed="3.65" length="4.67" shape="859.03,436.81 860.44,437.09 861.12,437.67 861.06,438.57 860.26,439.77"/>
    </edge>
    <edge id=":202556079_0" function="internal">
        <lane id=":202556079_0_0" index="0" speed="6.56" length="8.87" shape="567.34,569.55 565.36,570.87 564.25,572.54 564.02,574.56 564.65,576.92"/>
    </edge>
    <edge id=":202556079_1" function="internal">
        <lane id=":202556079_1_0" index="0" speed="16.86" length="17.35" shape="567.34,569.55 551.45,576.66"/>
        <lane id=":202556079_1_1" index="1" speed="16.86" length="17.35" shape="565.97,566.66 550.19,573.72"/>
    </edge>
    <edge id=":202556079_3" function="internal">
        <lane id=":202556079_3_0" index="0" speed="3.65" length="1.44" shape="565.97,566.66 564.54,566.45"/>
    </edge>
    <edge id=":202556079_12" function="internal">
        <lane id=":202556079_12_0" index="0" speed="3.65" length="3.23" shape="564.54,566.45 563.83,565.90 563.85,565.01 564.59,563.77"/>
    </edge>
    <edge id=":202556079_4" function="internal">
        <lane id=":202556079_4_0" index="0" speed="9.30" length="13.39" shape="550.81,558.73 553.83,560.81 556.91,561.87 560.04,561.89 563.21,560.88"/>
    </edge>
    <edge id=":202556079_5" function="internal">
        <lane id=":202556079_5_0" index="0" speed="23.34" length="22.44" shape="550.81,558.73 555.61,563.04 559.10,566.83 561.91,571.12 564.65,576.92"/>
        <lane id=":202556079_5_1" index="1" speed="23.34" length="22.44" shape="548.71,561.14 553.38,565.27 556.58,568.66 559.10,572.55 561.71,578.17"/>
    </edge>
    <edge id=":202556079_7" function="internal">
        <lane id=":202556079_7_0" index="0" speed="7.43" length="16.26" shape="548.71,561.14 552.62,565.24 554.17,568.71 553.36,571.53 550.19,573.72"/>
    </edge>
    <edge id=":202556079_8" function="internal">
        <lane id=":202556079_8_0" index="0" speed="16.86" length="17.09" shape="547.67,567.84 563.21,560.88"/>
        <lane id=":202556079_8_1" index="1" speed="16.86" length="17.09" shape="548.93,570.78 564.59,563.77"/>
    </edge>
    <edge id=":202556079_10" function="internal">
        <lane id=":202556079_10_0" index="0" speed="8.63" length="3.55" shape="548.93,570.78 552.39,570.01"/>
    </edge>
    <edge id=":202556079_11" function="internal">
        <lane id=":202556079_11_0" index="0" speed="3.65" length="1.44" shape="548.93,570.78 550.34,571.04"/>
    </edge>
    <edge id=":202556079_13" function="internal">
        <lane id=":202556079_13_0" index="0" speed="8.63" length="13.21" shape="552.39,570.01 552.79,569.93 556.21,570.87 559.18,573.62 561.71,578.17"/>
    </edge>
    <edge id=":202556079_14" function="internal">
        <lane id=":202556079_14_0" index="0" speed="3.65" length="3.23" shape="550.34,571.04 551.03,571.62 550.97,572.51 550.19,573.72"/>
    </edge>
    <edge id=":202568610_0" function="internal">
        <lane id=":202568610_0_0" index="0" speed="11.38" length="16.35" shape="383.68,658.70 379.33,655.97 375.35,654.34 371.75,653.81 368.53,654.39"/>
    </edge>
    <edge id=":202568610_1" function="internal">
        <lane id=":202568610_1_0" index="0" speed="23.34" length="25.49" shape="385.56,656.10 378.79,650.77 373.72,645.97 370.06,641.78 367.53,638.27"/>
    </edge>
    <edge id=":202568610_2" function="internal">
        <lane id=":202568610_2_0" index="0" speed="7.41" length="17.39" shape="387.43,653.51 382.89,649.51 381.15,646.09 382.20,643.24 386.04,640.97"/>
    </edge>
    <edge id=":202568610_3" function="internal">
        <lane id=":202568610_3_0" index="0" speed="19.12" length="21.11" shape="388.30,646.96 368.53,654.39"/>
        <lane id=":202568610_3_1" index="1" speed="19.12" length="21.11" shape="387.17,643.97 367.42,651.39"/>
    </edge>
    <edge id=":202568610_5" function="internal">
        <lane id=":202568610_5_0" index="0" speed="10.83" length="5.79" shape="387.17,643.97 381.54,645.33"/>
    </edge>
    <edge id=":202568610_6" function="internal">
        <lane id=":202568610_6_0" index="0" speed="3.65" length="1.44" shape="387.17,643.97 385.76,643.64"/>
    </edge>
    <edge id=":202568610_11" function="internal">
        <lane id=":202568610_11_0" index="0" speed="10.83" length="16.56" shape="381.54,645.33 381.17,645.42 375.89,644.95 371.35,642.57 367.53,638.27"/>
    </edge>
    <edge id=":202568610_12" function="internal">
        <lane id=":202568610_12_0" index="0" speed="3.65" length="3.23" shape="385.76,643.64 385.11,643.04 385.20,642.15 386.04,640.97"/>
    </edge>
    <edge id=":202568610_7" function="internal">
        <lane id=":202568610_7_0" index="0" speed="6.07" length="9.07" shape="365.19,645.38 367.45,644.16 368.60,642.56 368.62,640.60 367.53,638.27"/>
    </edge>
    <edge id=":202568610_8" function="internal">
        <lane id=":202568610_8_0" index="0" speed="19.12" length="21.07" shape="365.19,645.38 384.91,637.98"/>
        <lane id=":202568610_8_1" index="1" speed="19.12" length="21.07" shape="366.31,648.38 386.04,640.97"/>
    </edge>
    <edge id=":202568610_10" function="internal">
        <lane id=":202568610_10_0" index="0" speed="3.65" length="1.44" shape="366.31,648.38 367.71,648.72"/>
    </edge>
    <edge id=":202568610_13" function="internal">
        <lane id=":202568610_13_0" index="0" speed="3.65" length="3.23" shape="367.71,648.72 368.36,649.33 368.26,650.22 367.42,651.39"/>
    </edge>
    <edge id=":202626202_0" function="internal">
        <lane id=":202626202_0_0" index="0" speed="6.41" length="9.04" shape="262.40,702.59 261.21,700.41 259.61,699.16 257.60,698.86 255.20,699.50"/>
    </edge>
    <edge id=":202626202_1" function="internal">
        <lane id=":202626202_1_0" index="0" speed="23.34" length="20.92" shape="262.40,702.59 254.85,683.08"/>
    </edge>
    <edge id=":202626202_2" function="internal">
        <lane id=":202626202_2_0" index="0" speed="8.81" length="5.47" shape="262.40,702.59 261.06,697.42 261.06,697.30"/>
    </edge>
    <edge id=":202626202_3" function="internal">
        <lane id=":202626202_3_0" index="0" speed="3.65" length="1.44" shape="262.40,702.59 262.73,701.19"/>
    </edge>
    <edge id=":202626202_18" function="internal">
        <lane id=":202626202_18_0" index="0" speed="8.81" length="11.59" shape="261.06,697.30 261.26,693.26 263.01,690.10 266.30,687.95"/>
    </edge>
    <edge id=":202626202_19" function="internal">
        <lane id=":202626202_19_0" index="0" speed="3.65" length="3.23" shape="262.73,701.19 263.34,700.54 264.23,700.63 265.40,701.48"/>
    </edge>
    <edge id=":202626202_4" function="internal">
        <lane id=":202626202_4_0" index="0" speed="6.69" length="9.39" shape="268.71,693.88 266.50,695.17 265.21,696.86 264.85,698.96 265.40,701.48"/>
    </edge>
    <edge id=":202626202_5" function="internal">
        <lane id=":202626202_5_0" index="0" speed="20.24" length="14.66" shape="268.71,693.88 255.20,699.50"/>
        <lane id=":202626202_5_1" index="1" speed="20.24" length="14.66" shape="267.51,690.92 253.94,696.56"/>
    </edge>
    <edge id=":202626202_7" function="internal">
        <lane id=":202626202_7_0" index="0" speed="8.67" length="3.58" shape="267.51,690.92 263.99,691.60"/>
    </edge>
    <edge id=":202626202_8" function="internal">
        <lane id=":202626202_8_0" index="0" speed="3.65" length="1.44" shape="267.51,690.92 266.09,690.62"/>
    </edge>
    <edge id=":202626202_20" function="internal">
        <lane id=":202626202_20_0" index="0" speed="8.67" length="13.28" shape="263.99,691.60 263.65,691.67 260.25,690.61 257.32,687.75 254.85,683.08"/>
    </edge>
    <edge id=":202626202_21" function="internal">
        <lane id=":202626202_21_0" index="0" speed="3.65" length="3.23" shape="266.09,690.62 265.42,690.03 265.49,689.14 266.30,687.95"/>
    </edge>
    <edge id=":202626202_9" function="internal">
        <lane id=":202626202_9_0" index="0" speed="6.50" length="9.03" shape="257.82,681.89 259.06,684.03 260.68,685.26 262.70,685.58 265.10,684.98"/>
    </edge>
    <edge id=":202626202_10" function="internal">
        <lane id=":202626202_10_0" index="0" speed="23.34" length="21.01" shape="257.82,681.89 265.40,701.48"/>
    </edge>
    <edge id=":202626202_11" function="internal">
        <lane id=":202626202_11_0" index="0" speed="8.81" length="5.68" shape="257.82,681.89 259.25,686.97 259.23,687.37"/>
    </edge>
    <edge id=":202626202_12" function="internal">
        <lane id=":202626202_12_0" index="0" speed="3.65" length="1.44" shape="257.82,681.89 257.52,683.30"/>
    </edge>
    <edge id=":202626202_22" function="internal">
        <lane id=":202626202_22_0" index="0" speed="8.81" length="11.45" shape="259.23,687.37 259.08,691.11 257.31,694.31 253.94,696.56"/>
    </edge>
    <edge id=":202626202_23" function="internal">
        <lane id=":202626202_23_0" index="0" speed="3.65" length="3.23" shape="257.52,683.30 256.93,683.97 256.04,683.89 254.85,683.08"/>
    </edge>
    <edge id=":202626202_13" function="internal">
        <lane id=":202626202_13_0" index="0" speed="6.69" length="9.45" shape="251.43,690.67 253.71,689.31 255.05,687.60 255.42,685.52 254.85,683.08"/>
    </edge>
    <edge id=":202626202_14" function="internal">
        <lane id=":202626202_14_0" index="0" speed="20.24" length="14.78" shape="251.43,690.67 265.10,684.98"/>
        <lane id=":202626202_14_1" index="1" speed="20.24" length="14.78" shape="252.68,693.62 266.30,687.95"/>
    </edge>
    <edge id=":202626202_16" function="internal">
        <lane id=":202626202_16_0" index="0" speed="8.59" length="3.87" shape="252.68,693.62 256.46,692.80"/>
    </edge>
    <edge id=":202626202_17" function="internal">
        <lane id=":202626202_17_0" index="0" speed="3.65" length="1.44" shape="252.68,693.62 254.10,693.88"/>
    </edge>
    <edge id=":202626202_24" function="internal">
        <lane id=":202626202_24_0" index="0" speed="8.59" length="13.25" shape="256.46,692.80 256.64,692.76 260.08,693.78 263.00,696.69 265.40,701.48"/>
    </edge>
    <edge id=":202626202_25" function="internal">
        <lane id=":202626202_25_0" index="0" speed="3.65" length="3.23" shape="254.10,693.88 254.78,694.46 254.73,695.35 253.94,696.56"/>
    </edge>
    <edge id=":202648848_0" function="internal">
        <lane id=":202648848_0_0" index="0" speed="20.24" length="14.10" shape="347.38,662.22 334.27,667.31"/>
        <lane id=":202648848_0_1" index="1" speed="20.24" length="14.10" shape="346.26,659.22 333.07,664.34"/>
    </edge>
    <edge id=":202648848_2" function="internal">
        <lane id=":202648848_2_0" index="0" speed="8.74" length="16.76" shape="346.26,659.22 342.47,659.83 339.12,658.69 336.22,655.78 333.76,651.12"/>
    </edge>
    <edge id=":202648848_3" function="internal">
        <lane id=":202648848_3_0" index="0" speed="3.65" length="4.67" shape="346.26,659.22 344.86,658.89 344.21,658.28 344.30,657.39 345.15,656.22"/>
    </edge>
    <edge id=":202648848_4" function="internal">
        <lane id=":202648848_4_0" index="0" speed="6.59" length="9.09" shape="336.72,649.92 337.97,652.09 339.61,653.36 341.63,653.74 344.04,653.22"/>
    </edge>
    <edge id=":202648848_5" function="internal">
        <lane id=":202648848_5_0" index="0" speed="8.67" length="16.84" shape="336.72,649.92 338.18,654.99 338.06,659.09 336.35,662.20 333.07,664.34"/>
    </edge>
    <edge id=":202648848_6" function="internal">
        <lane id=":202648848_6_0" index="0" speed="3.65" length="4.67" shape="336.72,649.92 336.43,651.34 335.84,652.01 334.95,651.93 333.76,651.12"/>
    </edge>
    <edge id=":202648848_7" function="internal">
        <lane id=":202648848_7_0" index="0" speed="6.51" length="9.02" shape="330.67,658.41 332.81,657.17 334.03,655.54 334.35,653.52 333.76,651.12"/>
    </edge>
    <edge id=":202648848_8" function="internal">
        <lane id=":202648848_8_0" index="0" speed="20.24" length="14.29" shape="330.67,658.41 344.04,653.22"/>
        <lane id=":202648848_8_1" index="1" speed="20.24" length="14.29" shape="331.87,661.38 345.15,656.22"/>
    </edge>
    <edge id=":202648848_10" function="internal">
        <lane id=":202648848_10_0" index="0" speed="3.65" length="4.67" shape="331.87,661.38 333.28,661.67 333.95,662.26 333.88,663.15 333.07,664.34"/>
    </edge>
    <edge id=":202678527_0" function="internal">
        <lane id=":202678527_0_0" index="0" speed="7.01" length="11.24" shape="640.09,541.18 638.70,539.08 636.63,538.09 633.87,538.22 630.42,539.47"/>
    </edge>
    <edge id=":202678527_1" function="internal">
        <lane id=":202678527_1_0" index="0" speed="23.34" length="20.96" shape="640.09,541.18 638.17,537.71 635.43,533.92 632.24,529.30 628.98,523.34"/>
        <lane id=":202678527_1_1" index="1" speed="23.34" length="20.96" shape="640.09,541.18 631.88,521.99"/>
    </edge>
    <edge id=":202678527_3" function="internal">
        <lane id=":202678527_3_0" index="0" speed="9.38" length="7.43" shape="640.09,541.18 638.81,535.93 639.10,533.93"/>
    </edge>
    <edge id=":202678527_4" function="internal">
        <lane id=":202678527_4_0" index="0" speed="3.65" length="1.44" shape="640.09,541.18 640.39,539.77"/>
    </edge>
    <edge id=":202678527_19" function="internal">
        <lane id=":202678527_19_0" index="0" speed="9.38" length="12.04" shape="639.10,533.93 639.45,531.52 641.99,527.95 646.44,525.22"/>
    </edge>
    <edge id=":202678527_20" function="internal">
        <lane id=":202678527_20_0" index="0" speed="3.65" length="3.23" shape="640.39,539.77 640.99,539.11 641.88,539.19 643.06,540.01"/>
    </edge>
    <edge id=":202678527_5" function="internal">
        <lane id=":202678527_5_0" index="0" speed="7.47" length="11.97" shape="648.95,531.11 645.57,532.95 643.46,535.05 642.63,537.40 643.06,540.01"/>
    </edge>
    <edge id=":202678527_6" function="internal">
        <lane id=":202678527_6_0" index="0" speed="15.74" length="20.39" shape="648.95,531.11 630.42,539.47"/>
        <lane id=":202678527_6_1" index="1" speed="15.74" length="20.39" shape="647.70,528.17 629.05,536.58"/>
    </edge>
    <edge id=":202678527_8" function="internal">
        <lane id=":202678527_8_0" index="0" speed="9.34" length="4.35" shape="647.70,528.17 643.49,529.29"/>
    </edge>
    <edge id=":202678527_9" function="internal">
        <lane id=":202678527_9_0" index="0" speed="3.65" length="1.44" shape="647.70,528.17 646.28,527.90"/>
    </edge>
    <edge id=":202678527_21" function="internal">
        <lane id=":202678527_21_0" index="0" speed="9.34" length="14.87" shape="643.49,529.29 642.65,529.51 638.34,528.92 634.75,526.42 631.88,521.99"/>
    </edge>
    <edge id=":202678527_22" function="internal">
        <lane id=":202678527_22_0" index="0" speed="3.65" length="3.23" shape="646.28,527.90 645.60,527.32 645.65,526.43 646.44,525.22"/>
    </edge>
    <edge id=":202678527_10" function="internal">
        <lane id=":202678527_10_0" index="0" speed="6.62" length="9.14" shape="637.69,519.30 639.06,521.42 640.76,522.62 642.81,522.91 645.19,522.28"/>
    </edge>
    <edge id=":202678527_11" function="internal">
        <lane id=":202678527_11_0" index="0" speed="23.34" length="21.46" shape="637.69,519.30 640.05,525.71 641.27,531.31 642.05,536.09 643.06,540.01"/>
    </edge>
    <edge id=":202678527_12" function="internal">
        <lane id=":202678527_12_0" index="0" speed="9.28" length="5.38" shape="634.79,520.64 636.31,525.69 636.30,525.80"/>
    </edge>
    <edge id=":202678527_13" function="internal">
        <lane id=":202678527_13_0" index="0" speed="3.65" length="1.44" shape="634.79,520.64 634.57,522.07"/>
    </edge>
    <edge id=":202678527_23" function="internal">
        <lane id=":202678527_23_0" index="0" speed="9.28" length="13.89" shape="636.30,525.80 635.86,530.03 633.44,533.66 629.05,536.58"/>
    </edge>
    <edge id=":202678527_24" function="internal">
        <lane id=":202678527_24_0" index="0" speed="3.65" length="3.23" shape="634.57,522.07 634.01,522.77 633.12,522.74 631.88,521.99"/>
    </edge>
    <edge id=":202678527_14" function="internal">
        <lane id=":202678527_14_0" index="0" speed="6.53" length="9.03" shape="626.29,530.81 628.35,529.44 629.48,527.74 629.70,525.70 628.98,523.34"/>
    </edge>
    <edge id=":202678527_15" function="internal">
        <lane id=":202678527_15_0" index="0" speed="15.74" length="20.66" shape="626.29,530.81 645.19,522.28"/>
        <lane id=":202678527_15_1" index="1" speed="15.74" length="20.66" shape="627.67,533.69 646.44,525.22"/>
    </edge>
    <edge id=":202678527_17" function="internal">
        <lane id=":202678527_17_0" index="0" speed="9.02" length="5.27" shape="627.67,533.69 632.71,532.14"/>
    </edge>
    <edge id=":202678527_18" function="internal">
        <lane id=":202678527_18_0" index="0" speed="3.65" length="1.44" shape="627.67,533.69 629.10,533.90"/>
    </edge>
    <edge id=":202678527_25" function="internal">
        <lane id=":202678527_25_0" index="0" speed="9.02" length="14.02" shape="632.71,532.14 636.96,532.68 640.41,535.30 643.06,540.01"/>
    </edge>
    <edge id=":202678527_26" function="internal">
        <lane id=":202678527_26_0" index="0" speed="3.65" length="3.23" shape="629.10,533.90 629.80,534.45 629.79,535.34 629.05,536.58"/>
    </edge>
    <edge id=":202698315_0" function="internal">
        <lane id=":202698315_0_0" index="0" speed="7.13" length="11.38" shape="1010.96,389.37 1009.60,387.25 1007.51,386.22 1004.69,386.26 1001.15,387.37"/>
    </edge>
    <edge id=":202698315_1" function="internal">
        <lane id=":202698315_1_0" index="0" speed="21.79" length="27.34" shape="1010.96,389.37 1008.72,384.93 1005.23,379.03 1001.33,372.28 997.89,365.29"/>
        <lane id=":202698315_1_1" index="1" speed="21.79" length="27.34" shape="1010.96,389.37 1000.84,364.05"/>
    </edge>
    <edge id=":202698315_3" function="internal">
        <lane id=":202698315_3_0" index="0" speed="10.04" length="8.86" shape="1010.96,389.37 1009.29,382.82 1009.44,380.72"/>
    </edge>
    <edge id=":202698315_4" function="internal">
        <lane id=":202698315_4_0" index="0" speed="3.65" length="1.44" shape="1010.96,389.37 1011.29,387.96"/>
    </edge>
    <edge id=":202698315_20" function="internal">
        <lane id=":202698315_20_0" index="0" speed="10.04" length="13.37" shape="1009.44,380.72 1009.67,377.49 1012.10,373.36 1016.57,370.44"/>
    </edge>
    <edge id=":202698315_21" function="internal">
        <lane id=":202698315_21_0" index="0" speed="3.65" length="3.23" shape="1011.29,387.96 1011.89,387.31 1012.78,387.40 1013.96,388.24"/>
    </edge>
    <edge id=":202698315_5" function="internal">
        <lane id=":202698315_5_0" index="0" speed="8.24" length="14.65" shape="1019.06,376.33 1015.64,378.39 1013.65,381.05 1013.09,384.34 1013.96,388.24"/>
    </edge>
    <edge id=":202698315_6" function="internal">
        <lane id=":202698315_6_0" index="0" speed="15.74" length="21.01" shape="1019.06,376.33 1013.74,379.12 1010.28,381.77 1006.74,384.46 1001.15,387.37"/>
        <lane id=":202698315_6_1" index="1" speed="15.74" length="21.01" shape="1017.82,373.38 1012.49,376.17 1009.04,378.83 1005.49,381.52 999.90,384.42"/>
        <lane id=":202698315_6_2" index="2" speed="15.74" length="21.01" shape="1017.82,373.38 998.65,381.47"/>
    </edge>
    <edge id=":202698315_9" function="internal">
        <lane id=":202698315_9_0" index="0" speed="9.84" length="5.49" shape="1017.82,373.38 1012.61,374.55 1012.45,374.51"/>
    </edge>
    <edge id=":202698315_10" function="internal">
        <lane id=":202698315_10_0" index="0" speed="3.65" length="1.44" shape="1017.82,373.38 1016.40,373.11"/>
    </edge>
    <edge id=":202698315_22" function="internal">
        <lane id=":202698315_22_0" index="0" speed="9.84" length="16.50" shape="1012.45,374.51 1008.05,373.38 1004.12,369.88 1000.84,364.05"/>
    </edge>
    <edge id=":202698315_23" function="internal">
        <lane id=":202698315_23_0" index="0" speed="3.65" length="3.23" shape="1016.40,373.11 1015.72,372.53 1015.78,371.64 1016.57,370.44"/>
    </edge>
    <edge id=":202698315_11" function="internal">
        <lane id=":202698315_11_0" index="0" speed="7.33" length="11.74" shape="1006.73,361.55 1008.56,364.96 1010.60,367.09 1012.86,367.93 1015.33,367.49"/>
    </edge>
    <edge id=":202698315_12" function="internal">
        <lane id=":202698315_12_0" index="0" speed="21.79" length="27.68" shape="1006.73,361.55 1009.26,368.95 1011.15,376.59 1012.63,383.39 1013.96,388.24"/>
    </edge>
    <edge id=":202698315_13" function="internal">
        <lane id=":202698315_13_0" index="0" speed="9.84" length="6.79" shape="1003.79,362.80 1005.69,369.22 1005.69,369.32"/>
    </edge>
    <edge id=":202698315_14" function="internal">
        <lane id=":202698315_14_0" index="0" speed="3.65" length="1.44" shape="1003.79,362.80 1003.52,364.21"/>
    </edge>
    <edge id=":202698315_24" function="internal">
        <lane id=":202698315_24_0" index="0" speed="9.84" length="15.21" shape="1005.69,369.32 1005.47,374.47 1003.12,378.55 998.65,381.47"/>
    </edge>
    <edge id=":202698315_25" function="internal">
        <lane id=":202698315_25_0" index="0" speed="3.65" length="3.23" shape="1003.52,364.21 1002.94,364.89 1002.04,364.84 1000.84,364.05"/>
    </edge>
    <edge id=":202698315_15" function="internal">
        <lane id=":202698315_15_0" index="0" speed="6.51" length="9.03" shape="994.92,372.63 997.04,371.35 998.24,369.71 998.53,367.69 997.89,365.29"/>
    </edge>
    <edge id=":202698315_16" function="internal">
        <lane id=":202698315_16_0" index="0" speed="15.74" length="21.12" shape="994.92,372.63 1000.90,370.65 1005.30,369.98 1009.62,369.36 1015.33,367.49"/>
        <lane id=":202698315_16_1" index="1" speed="15.74" length="21.12" shape="996.16,375.58 1002.15,373.59 1006.55,372.93 1010.86,372.30 1016.57,370.44"/>
    </edge>
    <edge id=":202698315_18" function="internal">
        <lane id=":202698315_18_0" index="0" speed="9.70" length="3.97" shape="997.41,378.53 1001.28,377.67"/>
    </edge>
    <edge id=":202698315_19" function="internal">
        <lane id=":202698315_19_0" index="0" speed="3.65" length="1.44" shape="997.41,378.53 998.83,378.80"/>
    </edge>
    <edge id=":202698315_26" function="internal">
        <lane id=":202698315_26_0" index="0" speed="9.70" length="18.01" shape="1001.28,377.67 1002.61,377.37 1007.11,378.61 1010.89,382.23 1013.96,388.24"/>
    </edge>
    <edge id=":202698315_27" function="internal">
        <lane id=":202698315_27_0" index="0" speed="3.65" length="3.23" shape="998.83,378.80 999.51,379.38 999.45,380.27 998.65,381.47"/>
    </edge>
    <edge id=":202748867_0" function="internal">
        <lane id=":202748867_0_0" index="0" speed="3.65" length="4.67" shape="846.86,0.62 847.12,-0.79 847.70,-1.47 848.60,-1.42 849.80,-0.62"/>
    </edge>
    <edge id=":3583810132_0" function="internal">
        <lane id=":3583810132_0_0" index="0" speed="3.65" length="4.67" shape="0.66,608.60 -0.77,608.37 -1.46,607.80 -1.42,606.91 -0.66,605.68"/>
    </edge>
    <edge id=":6715014168_0" function="internal">
        <lane id=":6715014168_0_0" index="0" speed="3.65" length="4.67" shape="241.08,702.05 239.67,701.78 238.99,701.20 239.04,700.31 239.83,699.10"/>
    </edge>
    <edge id=":6715816100_0" function="internal">
        <lane id=":6715816100_0_0" index="0" speed="15.74" length="14.40" shape="831.04,455.39 817.75,460.93"/>
        <lane id=":6715816100_0_1" index="1" speed="15.74" length="14.40" shape="829.81,452.44 816.52,457.97"/>
    </edge>
    <edge id=":6715816100_2" function="internal">
        <lane id=":6715816100_2_0" index="0" speed="8.67" length="16.85" shape="829.81,452.44 825.97,453.23 822.57,452.20 819.60,449.38 817.08,444.74"/>
    </edge>
    <edge id=":6715816100_3" function="internal">
        <lane id=":6715816100_3_0" index="0" speed="3.65" length="4.67" shape="829.81,452.44 828.40,452.16 827.72,451.58 827.78,450.68 828.58,449.48"/>
    </edge>
    <edge id=":6715816100_4" function="internal">
        <lane id=":6715816100_4_0" index="0" speed="6.51" length="9.04" shape="820.03,443.51 821.30,445.64 822.94,446.85 824.96,447.15 827.35,446.53"/>