<?xml version="1.0" encoding="UTF-8"?>

<!-- generated on 2025-05-23 14:19:28 by Eclipse SUMO jtrrouter Version 1.21.0
<jtrrouterConfiguration xmlns:xsi="http://www.w3.org/2001/XMLSchema-instance" xsi:noNamespaceSchemaLocation="http://sumo.dlr.de/xsd/jtrrouterConfiguration.xsd">

    <input>
        <net-file value="c:/Users/xh8/ornl_work/github_workspace/Real-Twin-Dev/datasets/chattanooga/output/SUMO/chatt.net.xml"/>
        <route-files value="c:/Users/xh8/ornl_work/github_workspace/Real-Twin-Dev/datasets/chattanooga/output/SUMO/chatt.flow.xml"/>
        <turn-ratio-files value="c:/Users/xh8/ornl_work/github_workspace/Real-Twin-Dev/datasets/chattanooga/output/SUMO/chatt.turn.xml"/>
    </input>

    <output>
        <output-file value="c:/Users/xh8/ornl_work/github_workspace/Real-Twin-Dev/datasets/chattanooga/output/SUMO/chatt.rou.xml"/>
    </output>

    <processing>
        <randomize-flows value="true"/>
        <remove-loops value="True"/>
        <accept-all-destinations value="true"/>
    </processing>

    <random_number>
        <seed value="812"/>
    </random_number>

</jtrrouterConfiguration>
-->

<routes xmlns:xsi="http://www.w3.org/2001/XMLSchema-instance" xsi:noNamespaceSchemaLocation="http://sumo.dlr.de/xsd/routes_file.xsd">
    <vType id="car"/>
    <vehicle id="2.0" type="car" depart="28800.77">
        <route edges="-312 -293 -297 -288 -2881 -286 -303"/>
    </vehicle>
    <vehicle id="5.0" type="car" depart="28801.21">
        <route edges="-310 -2851 -285 -290 -298 -295"/>
    </vehicle>
    <vehicle id="9.0" type="car" depart="28801.73">
        <route edges="-318 -281 -315 -3151 -321 -300 -2851 -285 -290 -298 -295"/>
    </vehicle>
    <vehicle id="2.1" type="car" depart="28802.05">
        <route edges="-312 -293 -297 -288 -2881 -286 -302 -323"/>
    </vehicle>
    <vehicle id="10.0" type="car" depart="28806.85">
        <route edges="-2801 -280 -307 -327 -3271 -281 -315 -3151 -321 -300 -2851 -285 -290 -298 -295"/>
    </vehicle>
    <vehicle id="2.2" type="car" depart="28808.31">
        <route edges="-312 -293 -298 -295"/>
    </vehicle>
    <vehicle id="5.1" type="car" depart="28809.30">
        <route edges="-310 -287"/>
    </vehicle>
    <vehicle id="5.2" type="car" depart="28809.61">
        <route edges="-310 -286 -302 -323"/>
    </vehicle>
    <vehicle id="10.1" type="car" depart="28810.53">
        <route edges="-2801 -280 -307 -327 -3271 -281 -315 -3151 -321 -300 -2851 -285 -289"/>
    </vehicle>
    <vehicle id="10.2" type="car" depart="28810.74">
        <route edges="-2801 -280 -307 -329"/>
    </vehicle>
    <vehicle id="12.0" type="car" depart="28812.14">
        <route edges="-326 -307 -329"/>
    </vehicle>
    <vehicle id="2.3" type="car" depart="28812.72">
        <route edges="-312 -293 -299"/>
    </vehicle>
    <vehicle id="6.0" type="car" depart="28813.00">
        <route edges="-319 -300 -287"/>
    </vehicle>
    <vehicle id="2.4" type="car" depart="28814.10">
        <route edges="-312 -293 -297 -288 -2881 -286 -302 -323"/>
    </vehicle>
    <vehicle id="6.1" type="car" depart="28814.12">
        <route edges="-319 -300 -2851 -285 -289"/>
    </vehicle>
    <vehicle id="12.1" type="car" depart="28814.45">
        <route edges="-326 -307 -327 -3271 -281 -315 -3151 -321 -300 -2851 -285 -289"/>
    </vehicle>
    <vehicle id="11.0" type="car" depart="28817.34">
        <route edges="-308 -307 -327 -3271 -281 -315 -3151 -321 -300 -2851 -285 -290 -299"/>
    </vehicle>
    <vehicle id="8.0" type="car" depart="28823.61">
        <route edges="-317 -281 -315 -3151 -321 -300 -2851 -285 -289"/>
    </vehicle>
    <vehicle id="4.0" type="car" depart="28826.98">
        <route edges="-292 -290 -299"/>
    </vehicle>
    <vehicle id="5.3" type="car" depart="28827.10">
        <route edges="-310 -286 -302 -3221 -322 -313 -284 -2841 -329"/>
    </vehicle>
    <vehicle id="3.0" type="car" depart="28827.79">
        <route edges="-324 -293 -297 -289"/>
    </vehicle>
    <vehicle id="12.2" type="car" depart="28828.07">
        <route edges="-326 -307 -327 -3271 -281 -315 -3151 -321 -300 -2851 -285 -289"/>
    </vehicle>
    <vehicle id="2.5" type="car" depart="28830.47">
        <route edges="-312 -293 -297 -288 -2881 -286 -302 -323"/>
    </vehicle>
    <vehicle id="11.1" type="car" depart="28830.57">
        <route edges="-308 -307 -327 -3271 -281 -315 -3151 -321 -300 -287"/>
    </vehicle>
    <vehicle id="5.4" type="car" depart="28831.55">
        <route edges="-310 -2851 -285 -290 -299"/>
    </vehicle>
    <vehicle id="5.5" type="car" depart="28832.81">
        <route edges="-310 -286 -302 -323"/>
    </vehicle>
    <vehicle id="2.6" type="car" depart="28837.59">
        <route edges="-312 -293 -297 -288 -2881 -287"/>
    </vehicle>
    <vehicle id="2.7" type="car" depart="28837.77">
        <route edges="-312 -293 -298 -295"/>
    </vehicle>
    <vehicle id="6.2" type="car" depart="28838.28">
        <route edges="-319 -300 -287"/>
    </vehicle>
    <vehicle id="2.8" type="car" depart="28838.61">
        <route edges="-312 -293 -298 -295"/>
    </vehicle>
    <vehicle id="12.3" type="car" depart="28838.76">
        <route edges="-326 -305"/>
    </vehicle>
    <vehicle id="10.3" type="car" depart="28838.78">
        <route edges="-2801 -280 -307 -329"/>
    </vehicle>
    <vehicle id="8.1" type="car" depart="28839.00">
        <route edges="-317 -281 -315 -3151 -321 -300 -287"/>
    </vehicle>
    <vehicle id="10.4" type="car" depart="28839.18">
        <route edges="-2801 -280 -307 -329"/>
    </vehicle>
    <vehicle id="2.9" type="car" depart="28840.92">
        <route edges="-312 -293 -297 -289"/>
    </vehicle>
    <vehicle id="11.2" type="car" depart="28842.72">
        <route edges="-308 -307 -329"/>
    </vehicle>
    <vehicle id="10.5" type="car" depart="28843.77">
        <route edges="-2801 -280 -307 -329"/>
    </vehicle>
    <vehicle id="4.1" type="car" depart="28844.61">
        <route edges="-292 -290 -298 -295"/>
    </vehicle>
    <vehicle id="5.6" type="car" depart="28848.91">
        <route edges="-310 -286 -302 -323"/>
    </vehicle>
    <vehicle id="10.6" type="car" depart="28848.97">
        <route edges="-2801 -280 -307 -329"/>
    </vehicle>
    <vehicle id="5.7" type="car" depart="28851.31">
        <route edges="-310 -2851 -285 -289"/>
    </vehicle>
    <vehicle id="2.10" type="car" depart="28851.72">
        <route edges="-312 -293 -299"/>
    </vehicle>
    <vehicle id="4.2" type="car" depart="28853.85">
        <route edges="-292 -288 -2881 -287"/>
    </vehicle>
    <vehicle id="5.8" type="car" depart="28853.96">
        <route edges="-310 -2851 -285 -290 -297 -288 -2881 -286 -302 -3221 -322 -313 -284 -2841 -329"/>
    </vehicle>
    <vehicle id="5.9" type="car" depart="28855.26">
        <route edges="-310 -286 -302 -3221 -322 -314"/>
    </vehicle>
    <vehicle id="10.7" type="car" depart="28855.34">
        <route edges="-2801 -280 -307 -329"/>
    </vehicle>
    <vehicle id="10.8" type="car" depart="28858.09">
        <route edges="-2801 -280 -307 -327 -3271 -281 -315 -3151 -321 -300 -2851 -285 -290 -298 -295"/>
    </vehicle>
    <vehicle id="11.3" type="car" depart="28858.13">
        <route edges="-308 -306"/>
    </vehicle>
    <vehicle id="4.3" type="car" depart="28858.29">
        <route edges="-292 -290 -299"/>
    </vehicle>
    <vehicle id="10.9" type="car" depart="28858.96">
        <route edges="-2801 -280 -307 -327 -3271 -281 -315 -3151 -321 -300 -2851 -285 -289"/>
    </vehicle>
    <vehicle id="12.4" type="car" depart="28859.27">
        <route edges="-326 -305"/>
    </vehicle>
    <vehicle id="5.10" type="car" depart="28860.49">
        <route edges="-310 -286 -302 -323"/>
    </vehicle>
    <vehicle id="3.1" type="car" depart="28861.57">
        <route edges="-324 -293 -297 -289"/>
    </vehicle>
    <vehicle id="2.11" type="car" depart="28861.81">
        <route edges="-312 -296"/>
    </vehicle>
    <vehicle id="12.5" type="car" depart="28861.85">
        <route edges="-326 -304"/>
    </vehicle>
    <vehicle id="4.4" type="car" depart="28862.43">
        <route edges="-292 -288 -2881 -286 -302 -3221 -322 -314"/>
    </vehicle>
    <vehicle id="4.5" type="car" depart="28863.16">
        <route edges="-292 -288 -2881 -286 -302 -323"/>
    </vehicle>
    <vehicle id="5.11" type="car" depart="28864.90">
        <route edges="-310 -286 -302 -3221 -322 -313 -284 -2841 -329"/>
    </vehicle>
    <vehicle id="10.10" type="car" depart="28865.64">
        <route edges="-2801 -280 -307 -329"/>
    </vehicle>
    <vehicle id="4.6" type="car" depart="28866.17">
        <route edges="-292 -288 -2881 -286 -302 -3221 -322 -314"/>
    </vehicle>
    <vehicle id="3.2" type="car" depart="28866.69">
        <route edges="-324 -293 -297 -289"/>
    </vehicle>
    <vehicle id="2.12" type="car" depart="28867.09">
        <route edges="-312 -293 -297 -288 -2881 -286 -302 -3221 -322 -314"/>
    </vehicle>
    <vehicle id="5.12" type="car" depart="28867.81">
        <route edges="-310 -2851 -285 -289"/>
    </vehicle>
    <vehicle id="4.7" type="car" depart="28868.21">
        <route edges="-292 -288 -2881 -286 -302 -323"/>
    </vehicle>
    <vehicle id="5.13" type="car" depart="28868.23">
        <route edges="-310 -286 -302 -323"/>
    </vehicle>
    <vehicle id="2.13" type="car" depart="28869.43">
        <route edges="-312 -293 -298 -295"/>
    </vehicle>
    <vehicle id="2.14" type="car" depart="28869.66">
        <route edges="-312 -296"/>
    </vehicle>
    <vehicle id="10.11" type="car" depart="28870.00">
        <route edges="-2801 -280 -307 -327 -3271 -281 -315 -3151 -321 -300 -2851 -285 -289"/>
    </vehicle>
    <vehicle id="4.8" type="car" depart="28870.08">
        <route edges="-292 -290 -297 -288 -2881 -286 -302 -323"/>
    </vehicle>
    <vehicle id="4.9" type="car" depart="28870.19">
        <route edges="-292 -288 -2881 -286 -302 -323"/>
    </vehicle>
    <vehicle id="5.14" type="car" depart="28870.21">
        <route edges="-310 -286 -302 -3221 -322 -314"/>
    </vehicle>
    <vehicle id="10.12" type="car" depart="28871.92">
        <route edges="-2801 -280 -307 -327 -3271 -281 -315 -3151 -321 -300 -2851 -285 -290 -299"/>
    </vehicle>
    <vehicle id="11.4" type="car" depart="28872.91">
        <route edges="-308 -307 -327 -3271 -281 -315 -3151 -321 -300 -2851 -285 -290 -299"/>
    </vehicle>
    <vehicle id="5.15" type="car" depart="28875.36">
        <route edges="-310 -286 -302 -323"/>
    </vehicle>
    <vehicle id="4.10" type="car" depart="28875.60">
        <route edges="-292 -288 -2881 -286 -302 -3221 -322 -313 -284 -2841 -329"/>
    </vehicle>
    <vehicle id="5.16" type="car" depart="28876.79">
        <route edges="-310 -2851 -285 -289"/>
    </vehicle>
    <vehicle id="5.17" type="car" depart="28877.48">
        <route edges="-310 -286 -302 -3221 -322 -313 -284 -2841 -329"/>
    </vehicle>
    <vehicle id="10.13" type="car" depart="28878.26">
        <route edges="-2801 -280 -307 -327 -3271 -281 -315 -3151 -321 -300 -2851 -285 -290 -298 -296"/>
    </vehicle>
    <vehicle id="10.14" type="car" depart="28878.34">
        <route edges="-2801 -280 -307 -327 -3271 -281 -315 -3151 -321 -300 -2851 -285 -289"/>
    </vehicle>
    <vehicle id="4.11" type="car" depart="28881.37">
        <route edges="-292 -288 -2881 -287"/>
    </vehicle>
    <vehicle id="4.12" type="car" depart="28883.05">
        <route edges="-292 -288 -2881 -287"/>
    </vehicle>
    <vehicle id="12.6" type="car" depart="28883.55">
        <route edges="-326 -307 -329"/>
    </vehicle>
    <vehicle id="10.15" type="car" depart="28885.13">
        <route edges="-2801 -280 -307 -327 -3271 -281 -315 -3151 -321 -300 -287"/>
    </vehicle>
    <vehicle id="5.18" type="car" depart="28885.54">
        <route edges="-310 -286 -302 -323"/>
    </vehicle>
    <vehicle id="8.2" type="car" depart="28885.70">
        <route edges="-317 -281 -315 -3151 -321 -300 -2851 -285 -289"/>
    </vehicle>
    <vehicle id="10.16" type="car" depart="28885.96">
        <route edges="-2801 -280 -307 -329"/>
    </vehicle>
    <vehicle id="5.19" type="car" depart="28886.31">
        <route edges="-310 -287"/>
    </vehicle>
    <vehicle id="4.13" type="car" depart="28886.99">
        <route edges="-292 -290 -297 -289"/>
    </vehicle>
    <vehicle id="4.14" type="car" depart="28887.42">
        <route edges="-292 -288 -2881 -286 -302 -3221 -322 -314"/>
    </vehicle>
    <vehicle id="4.15" type="car" depart="28887.76">
        <route edges="-292 -288 -2881 -286 -302 -3221 -322 -313 -284 -2841 -329"/>
    </vehicle>
    <vehicle id="4.16" type="car" depart="28890.07">
        <route edges="-292 -288 -2881 -286 -302 -3221 -322 -313 -284 -2841 -329"/>
    </vehicle>
    <vehicle id="6.3" type="car" depart="28890.13">
        <route edges="-319 -302 -3221 -322 -314"/>
    </vehicle>
    <vehicle id="3.3" type="car" depart="28892.30">
        <route edges="-324 -293 -299"/>
    </vehicle>
    <vehicle id="4.17" type="car" depart="28893.60">
        <route edges="-292 -288 -2881 -286 -303"/>
    </vehicle>
    <vehicle id="2.15" type="car" depart="28894.10">
        <route edges="-312 -293 -299"/>
    </vehicle>
    <vehicle id="10.17" type="car" depart="28895.02">
        <route edges="-2801 -280 -307 -327 -3271 -281 -315 -3151 -321 -300 -2851 -285 -289"/>
    </vehicle>
    <vehicle id="2.16" type="car" depart="28895.47">
        <route edges="-312 -293 -299"/>
    </vehicle>
    <vehicle id="10.18" type="car" depart="28895.55">
        <route edges="-2801 -280 -307 -327 -3271 -281 -315 -3151 -321 -300 -2851 -285 -290 -299"/>
    </vehicle>
    <vehicle id="10.19" type="car" depart="28896.13">
        <route edges="-2801 -280 -307 -327 -3271 -281 -315 -3151 -321 -300 -2851 -285 -289"/>
    </vehicle>
    <vehicle id="10.20" type="car" depart="28897.21">
        <route edges="-2801 -280 -307 -329"/>
    </vehicle>
    <vehicle id="6.4" type="car" depart="28898.15">
        <route edges="-319 -303"/>
    </vehicle>
    <vehicle id="2.17" type="car" depart="28898.88">
        <route edges="-312 -293 -297 -288 -2881 -286 -302 -323"/>
    </vehicle>
    <vehicle id="11.5" type="car" depart="28899.10">
        <route edges="-308 -304"/>
    </vehicle>
    <vehicle id="10.21" type="car" depart="28904.58">
        <route edges="-2801 -280 -307 -329"/>
    </vehicle>
    <vehicle id="2.18" type="car" depart="28904.63">
        <route edges="-312 -293 -299"/>
    </vehicle>
    <vehicle id="12.7" type="car" depart="28906.70">
        <route edges="-326 -305"/>
    </vehicle>
    <vehicle id="5.20" type="car" depart="28907.30">
        <route edges="-310 -286 -302 -323"/>
    </vehicle>
    <vehicle id="9.1" type="car" depart="28907.77">
        <route edges="-318 -281 -315 -3151 -321 -300 -2851 -285 -290 -297 -289"/>
    </vehicle>
    <vehicle id="4.18" type="car" depart="28907.84">
        <route edges="-292 -290 -299"/>
    </vehicle>
    <vehicle id="12.8" type="car" depart="28908.07">
        <route edges="-326 -307 -329"/>
    </vehicle>
    <vehicle id="10.22" type="car" depart="28908.09">
        <route edges="-2801 -280 -307 -329"/>
    </vehicle>
    <vehicle id="11.6" type="car" depart="28908.38">
        <route edges="-308 -306"/>
    </vehicle>
    <vehicle id="10.23" type="car" depart="28909.30">
        <route edges="-2801 -280 -307 -327 -3271 -281 -315 -3151 -321 -300 -2851 -285 -289"/>
    </vehicle>
    <vehicle id="11.7" type="car" depart="28909.38">
        <route edges="-308 -306"/>
    </vehicle>
    <vehicle id="12.9" type="car" depart="28909.73">
        <route edges="-326 -307 -327 -3271 -281 -315 -3151 -321 -300 -2851 -285 -289"/>
    </vehicle>
    <vehicle id="5.21" type="car" depart="28909.88">
        <route edges="-310 -286 -302 -323"/>
    </vehicle>
    <vehicle id="11.8" type="car" depart="28910.24">
        <route edges="-308 -307 -327 -3271 -281 -315 -3151 -321 -300 -2851 -285 -290 -299"/>
    </vehicle>
    <vehicle id="11.9" type="car" depart="28910.53">
        <route edges="-308 -306"/>
    </vehicle>
    <vehicle id="6.5" type="car" depart="28910.56">
        <route edges="-319 -300 -2851 -285 -290 -298 -295"/>
    </vehicle>
    <vehicle id="4.19" type="car" depart="28911.37">
        <route edges="-292 -288 -2881 -286 -302 -323"/>
    </vehicle>
    <vehicle id="9.2" type="car" depart="28911.49">
        <route edges="-318 -281 -315 -3151 -321 -300 -2851 -285 -290 -298 -295"/>
    </vehicle>
    <vehicle id="10.24" type="car" depart="28912.44">
        <route edges="-2801 -280 -307 -327 -3271 -281 -315 -3151 -321 -300 -2851 -285 -290 -297 -288 -2881 -286 -302 -3221 -322 -314"/>
    </vehicle>
    <vehicle id="5.22" type="car" depart="28912.54">
        <route edges="-310 -2851 -285 -290 -299"/>
    </vehicle>
    <vehicle id="10.25" type="car" depart="28912.57">
        <route edges="-2801 -280 -306"/>
    </vehicle>
    <vehicle id="2.19" type="car" depart="28914.42">
        <route edges="-312 -293 -297 -288 -2881 -286 -302 -323"/>
    </vehicle>
    <vehicle id="7.0" type="car" depart="28914.56">
        <route edges="-325 -300 -2851 -285 -290 -299"/>
    </vehicle>
    <vehicle id="11.10" type="car" depart="28914.90">
        <route edges="-308 -307 -327 -3271 -281 -315 -3151 -321 -300 -287"/>
    </vehicle>
    <vehicle id="5.23" type="car" depart="28914.94">
        <route edges="-310 -286 -302 -3221 -322 -313 -283"/>
    </vehicle>
    <vehicle id="12.10" type="car" depart="28915.76">
        <route edges="-326 -305"/>
    </vehicle>
    <vehicle id="10.26" type="car" depart="28915.87">
        <route edges="-2801 -280 -307 -327 -3271 -281 -315 -3151 -321 -300 -2851 -285 -290 -298 -295"/>
    </vehicle>
    <vehicle id="5.24" type="car" depart="28917.90">
        <route edges="-310 -286 -302 -323"/>
    </vehicle>
    <vehicle id="5.25" type="car" depart="28918.83">
        <route edges="-310 -286 -302 -3221 -322 -314"/>
    </vehicle>
    <vehicle id="4.20" type="car" depart="28919.90">
        <route edges="-292 -290 -298 -295"/>
    </vehicle>
    <vehicle id="11.11" type="car" depart="28919.98">
        <route edges="-308 -306"/>
    </vehicle>
    <vehicle id="11.12" type="car" depart="28920.60">
        <route edges="-308 -307 -327 -3271 -281 -315 -3151 -321 -300 -2851 -285 -289"/>
    </vehicle>
    <vehicle id="5.26" type="car" depart="28921.12">
        <route edges="-310 -2851 -285 -290 -298 -294"/>
    </vehicle>
    <vehicle id="3.4" type="car" depart="28921.39">
        <route edges="-324 -293 -297 -288 -2881 -286 -302 -323"/>
    </vehicle>
    <vehicle id="2.20" type="car" depart="28922.58">
        <route edges="-312 -293 -297 -288 -2881 -286 -302 -3221 -322 -314"/>
    </vehicle>
    <vehicle id="11.13" type="car" depart="28922.87">
        <route edges="-308 -307 -327 -3271 -281 -315 -3151 -321 -300 -2851 -285 -290 -297 -288 -2881 -286 -302 -323"/>
    </vehicle>
    <vehicle id="2.21" type="car" depart="28923.69">
        <route edges="-312 -293 -298 -295"/>
    </vehicle>
    <vehicle id="4.21" type="car" depart="28923.74">
        <route edges="-292 -290 -297 -288 -2881 -286 -302 -3221 -322 -313 -284 -2841 -327 -3271 -281 -315 -3151 -321 -300 -287"/>
    </vehicle>
    <vehicle id="8.3" type="car" depart="28924.39">
        <route edges="-317 -281 -315 -3151 -321 -300 -287"/>
    </vehicle>
    <vehicle id="3.5" type="car" depart="28925.28">
        <route edges="-324 -293 -299"/>
    </vehicle>
    <vehicle id="10.27" type="car" depart="28925.32">
        <route edges="-2801 -280 -307 -329"/>
    </vehicle>
    <vehicle id="5.27" type="car" depart="28925.33">
        <route edges="-310 -2851 -285 -290 -299"/>
    </vehicle>
    <vehicle id="10.28" type="car" depart="28925.78">
        <route edges="-2801 -280 -307 -327 -3271 -281 -315 -3151 -321 -300 -2851 -285 -290 -299"/>
    </vehicle>
    <vehicle id="5.28" type="car" depart="28927.36">
        <route edges="-310 -286 -302 -323"/>
    </vehicle>
    <vehicle id="11.14" type="car" depart="28930.77">
        <route edges="-308 -307 -327 -3271 -281 -315 -3151 -321 -300 -2851 -285 -290 -297 -289"/>
    </vehicle>
    <vehicle id="10.29" type="car" depart="28931.70">
        <route edges="-2801 -280 -307 -329"/>
    </vehicle>
    <vehicle id="5.29" type="car" depart="28932.28">
        <route edges="-310 -286 -302 -323"/>
    </vehicle>
    <vehicle id="5.30" type="car" depart="28932.72">
        <route edges="-310 -2851 -285 -290 -298 -295"/>
    </vehicle>
    <vehicle id="3.6" type="car" depart="28933.33">
        <route edges="-324 -293 -297 -288 -2881 -286 -302 -323"/>
    </vehicle>
    <vehicle id="5.31" type="car" depart="28933.57">
        <route edges="-310 -286 -302 -3221 -322 -314"/>
    </vehicle>
    <vehicle id="10.30" type="car" depart="28933.80">
        <route edges="-2801 -280 -307 -329"/>
    </vehicle>
    <vehicle id="4.22" type="car" depart="28934.11">
        <route edges="-292 -288 -2881 -286 -302 -323"/>
    </vehicle>
    <vehicle id="11.15" type="car" depart="28934.12">
        <route edges="-308 -306"/>
    </vehicle>
    <vehicle id="4.23" type="car" depart="28934.27">
        <route edges="-292 -288 -2881 -286 -302 -3221 -322 -313 -284 -2841 -329"/>
    </vehicle>
    <vehicle id="12.11" type="car" depart="28935.68">
        <route edges="-326 -305"/>
    </vehicle>
    <vehicle id="3.7" type="car" depart="28936.17">
        <route edges="-324 -295"/>
    </vehicle>
    <vehicle id="12.12" type="car" depart="28936.31">
        <route edges="-326 -305"/>
    </vehicle>
    <vehicle id="1.0" type="car" depart="28939.87">
        <route edges="-309 -293 -297 -288 -2881 -286 -302 -3221 -322 -313 -284 -2841 -328 -305"/>
    </vehicle>
    <vehicle id="4.24" type="car" depart="28940.01">
        <route edges="-292 -288 -2881 -286 -302 -323"/>
    </vehicle>
    <vehicle id="2.22" type="car" depart="28940.41">
        <route edges="-312 -293 -299"/>
    </vehicle>
    <vehicle id="2.23" type="car" depart="28940.50">
        <route edges="-312 -293 -299"/>
    </vehicle>
    <vehicle id="4.25" type="car" depart="28940.64">
        <route edges="-292 -290 -298 -295"/>
    </vehicle>
    <vehicle id="5.32" type="car" depart="28941.97">
        <route edges="-310 -286 -302 -323"/>
    </vehicle>
    <vehicle id="10.31" type="car" depart="28942.63">
        <route edges="-2801 -280 -307 -329"/>
    </vehicle>
    <vehicle id="4.26" type="car" depart="28945.85">
        <route edges="-292 -288 -2881 -286 -302 -3221 -322 -314"/>
    </vehicle>
    <vehicle id="4.27" type="car" depart="28947.13">
        <route edges="-292 -288 -2881 -286 -302 -323"/>
    </vehicle>
    <vehicle id="10.32" type="car" depart="28947.62">
        <route edges="-2801 -280 -307 -329"/>
    </vehicle>
    <vehicle id="3.8" type="car" depart="28950.01">
        <route edges="-324 -293 -297 -289"/>
    </vehicle>
    <vehicle id="2.24" type="car" depart="28950.60">
        <route edges="-312 -293 -298 -295"/>
    </vehicle>
    <vehicle id="5.33" type="car" depart="28951.18">
        <route edges="-310 -286 -302 -323"/>
    </vehicle>
    <vehicle id="10.33" type="car" depart="28952.63">
        <route edges="-2801 -280 -307 -329"/>
    </vehicle>
    <vehicle id="10.34" type="car" depart="28953.23">
        <route edges="-2801 -280 -307 -327 -3271 -281 -315 -3151 -321 -300 -2851 -285 -290 -298 -295"/>
    </vehicle>
    <vehicle id="4.28" type="car" depart="28954.28">
        <route edges="-292 -288 -2881 -286 -302 -323"/>
    </vehicle>
    <vehicle id="4.29" type="car" depart="28954.30">
        <route edges="-292 -288 -2881 -286 -302 -323"/>
    </vehicle>
    <vehicle id="4.30" type="car" depart="28954.63">
        <route edges="-292 -290 -299"/>
    </vehicle>
    <vehicle id="12.13" type="car" depart="28955.17">
        <route edges="-326 -305"/>
    </vehicle>
    <vehicle id="10.35" type="car" depart="28955.42">
        <route edges="-2801 -280 -307 -327 -3271 -281 -315 -3151 -321 -300 -2851 -285 -290 -299"/>
    </vehicle>
    <vehicle id="12.14" type="car" depart="28957.62">
        <route edges="-326 -307 -329"/>
    </vehicle>
    <vehicle id="5.34" type="car" depart="28959.65">
        <route edges="-310 -286 -302 -323"/>
    </vehicle>
    <vehicle id="5.35" type="car" depart="28959.71">
        <route edges="-310 -286 -302 -323"/>
    </vehicle>
    <vehicle id="4.31" type="car" depart="28960.73">
        <route edges="-292 -288 -2881 -286 -302 -323"/>
    </vehicle>
    <vehicle id="2.25" type="car" depart="28961.00">
        <route edges="-312 -293 -298 -295"/>
    </vehicle>
    <vehicle id="11.16" type="car" depart="28962.50">
        <route edges="-308 -307 -329"/>
    </vehicle>
    <vehicle id="11.17" type="car" depart="28963.20">
        <route edges="-308 -306"/>
    </vehicle>
    <vehicle id="5.36" type="car" depart="28964.12">
        <route edges="-310 -286 -302 -3221 -322 -314"/>
    </vehicle>
    <vehicle id="5.37" type="car" depart="28967.77">
        <route edges="-310 -2851 -285 -289"/>
    </vehicle>
    <vehicle id="10.36" type="car" depart="28968.68">
        <route edges="-2801 -280 -307 -329"/>
    </vehicle>
    <vehicle id="4.32" type="car" depart="28969.04">
        <route edges="-292 -288 -2881 -287"/>
    </vehicle>
    <vehicle id="11.18" type="car" depart="28971.70">
        <route edges="-308 -307 -329"/>
    </vehicle>
    <vehicle id="5.38" type="car" depart="28971.81">
        <route edges="-310 -286 -302 -3221 -322 -313 -284 -2841 -329"/>
    </vehicle>
    <vehicle id="10.37" type="car" depart="28972.40">
        <route edges="-2801 -280 -307 -327 -3271 -281 -315 -3151 -321 -300 -2851 -285 -290 -298 -295"/>
    </vehicle>
    <vehicle id="5.39" type="car" depart="28972.54">
        <route edges="-310 -286 -302 -323"/>
    </vehicle>
    <vehicle id="12.15" type="car" depart="28976.84">
        <route edges="-326 -305"/>
    </vehicle>
    <vehicle id="12.16" type="car" depart="28982.06">
        <route edges="-326 -305"/>
    </vehicle>
    <vehicle id="5.40" type="car" depart="28982.60">
        <route edges="-310 -286 -302 -323"/>
    </vehicle>
    <vehicle id="10.38" type="car" depart="28982.79">
        <route edges="-2801 -280 -307 -329"/>
    </vehicle>
    <vehicle id="6.6" type="car" depart="28982.85">
        <route edges="-319 -300 -2851 -285 -290 -298 -294"/>
    </vehicle>
    <vehicle id="4.33" type="car" depart="28983.63">
        <route edges="-292 -288 -2881 -286 -302 -3221 -322 -314"/>
    </vehicle>
    <vehicle id="11.19" type="car" depart="28984.14">
        <route edges="-308 -307 -329"/>
    </vehicle>
    <vehicle id="10.39" type="car" depart="28984.95">
        <route edges="-2801 -280 -307 -327 -3271 -281 -315 -3151 -321 -300 -2851 -285 -290 -299"/>
    </vehicle>
    <vehicle id="5.41" type="car" depart="28986.10">
        <route edges="-310 -286 -302 -323"/>
    </vehicle>
    <vehicle id="11.20" type="car" depart="28987.57">
        <route edges="-308 -304"/>
    </vehicle>
    <vehicle id="4.34" type="car" depart="28989.16">
        <route edges="-292 -288 -2881 -287"/>
    </vehicle>
    <vehicle id="11.21" type="car" depart="28989.59">
        <route edges="-308 -306"/>
    </vehicle>
    <vehicle id="8.4" type="car" depart="28989.81">
        <route edges="-317 -283"/>
    </vehicle>
    <vehicle id="5.42" type="car" depart="28989.88">
        <route edges="-310 -286 -302 -323"/>
    </vehicle>
    <vehicle id="9.3" type="car" depart="28989.92">
        <route edges="-318 -281 -315 -3151 -321 -300 -287"/>
    </vehicle>
    <vehicle id="10.40" type="car" depart="28990.33">
        <route edges="-2801 -280 -307 -329"/>
    </vehicle>
    <vehicle id="9.4" type="car" depart="28992.07">
        <route edges="-318 -281 -315 -3151 -321 -301"/>
    </vehicle>
    <vehicle id="3.9" type="car" depart="28992.49">
        <route edges="-324 -293 -297 -288 -2881 -286 -302 -323"/>
    </vehicle>
    <vehicle id="4.35" type="car" depart="28993.84">
        <route edges="-292 -290 -298 -295"/>
    </vehicle>
    <vehicle id="12.17" type="car" depart="28994.80">
        <route edges="-326 -307 -329"/>
    </vehicle>
    <vehicle id="4.36" type="car" depart="28995.88">
        <route edges="-292 -288 -2881 -286 -302 -323"/>
    </vehicle>
    <vehicle id="12.18" type="car" depart="28996.71">
        <route edges="-326 -307 -327 -3271 -281 -315 -3151 -321 -300 -2851 -285 -290 -299"/>
    </vehicle>
    <vehicle id="10.41" type="car" depart="28998.24">
        <route edges="-2801 -280 -307 -327 -3271 -281 -315 -3151 -321 -300 -2851 -285 -289"/>
    </vehicle>
    <vehicle id="5.43" type="car" depart="28998.38">
        <route edges="-310 -286 -302 -3221 -322 -313 -284 -2841 -328 -306"/>
    </vehicle>
    <vehicle id="2.26" type="car" depart="28998.84">
        <route edges="-312 -293 -297 -288 -2881 -286 -302 -3221 -322 -313 -284 -2841 -328 -305"/>
    </vehicle>
    <vehicle id="10.42" type="car" depart="29003.02">
        <route edges="-2801 -280 -307 -327 -3271 -281 -315 -3151 -321 -300 -2851 -285 -289"/>
    </vehicle>
    <vehicle id="2.27" type="car" depart="29003.90">
        <route edges="-312 -293 -297 -288 -2881 -286 -302 -323"/>
    </vehicle>
    <vehicle id="5.44" type="car" depart="29004.11">
        <route edges="-310 -287"/>
    </vehicle>
    <vehicle id="4.37" type="car" depart="29005.19">
        <route edges="-292 -288 -2881 -286 -302 -323"/>
    </vehicle>
    <vehicle id="4.38" type="car" depart="29006.00">
        <route edges="-292 -290 -299"/>
    </vehicle>
    <vehicle id="4.39" type="car" depart="29006.48">
        <route edges="-292 -290 -297 -289"/>
    </vehicle>
    <vehicle id="6.7" type="car" depart="29006.82">
        <route edges="-319 -300 -2851 -285 -290 -298 -295"/>
    </vehicle>
    <vehicle id="4.40" type="car" depart="29007.93">
        <route edges="-292 -290 -298 -296"/>
    </vehicle>
    <vehicle id="10.43" type="car" depart="29008.88">