<?xml version='1.0' encoding='utf-8'?>
<edges>
  <edge id="202556079202678527" from="202556079" to="202678527" numLanes="2" shape="-85.1548888,35.0421493 -85.1540362,35.0417989" speed="15.738456000000003" spreadType="right"/>
  <edge id="202556079459314290" from="202556079" to="459314290" numLanes="2" shape="-85.1548888,35.0421493 -85.1548237,35.0422696 -85.1539215,35.0439369 -85.1536303,35.0443784 -85.1528525,35.0451888" speed="23.342587500000004" spreadType="center"/>
  <edge id="202556079202568610" from="202556079" to="202568610" numLanes="3" shape="-85.1548888,35.0421493 -85.1551661,35.0422521 -85.1554764,35.0423648 -85.1558527,35.0425222 -85.156086,35.0426251 -85.1569073,35.0428949" speed="17.991532" spreadType="right"/>
  <edge id="202678527202556079" from="202678527" to="202556079" numLanes="2" shape="-85.1540362,35.0417989 -85.1548888,35.0421493" speed="15.738456000000003" spreadType="right"/>
  <edge id="2026785277043231282" from="202678527" to="7043231282" numLanes="2" shape="-85.1540362,35.0417989 -85.153693,35.0416725" speed="15.738456000000003" spreadType="right"/>
  <edge id="2026785277043231275" from="202678527" to="7043231275" numLanes="2" shape="-85.1540362,35.0417989 -85.1544284,35.0411362 -85.154462,35.0410986" speed="23.342587500000004" spreadType="right"/>
  <edge id="2026785277210975134" from="202678527" to="7210975134" shape="-85.1540362,35.0417989 -85.1539524,35.0419653 -85.1538435,35.0421815 -85.1537283,35.0424104 -85.1536688,35.0425285 -85.1533716,35.0431188 -85.1533069,35.0432473" speed="23.342587500000004" spreadType="right"/>
  <edge id="202568610202648848" from="202568610" to="202648848" numLanes="2" shape="-85.1569073,35.0428949 -85.1572817,35.0430155" speed="20.244608" spreadType="right"/>
  <edge id="202568610202556079" from="202568610" to="202556079" numLanes="3" shape="-85.1569073,35.0428949 -85.156086,35.0426251 -85.1558527,35.0425222 -85.1554764,35.0423648 -85.1551661,35.0422521 -85.1548888,35.0421493" speed="17.991532" spreadType="right"/>
  <edge id="202568610202568603" from="202568610" to="202568603" numLanes="2" shape="-85.1569073,35.0428949 -85.1570717,35.0426971 -85.1580944,35.0408186 -85.1586195,35.0401373" speed="23.342587500000004" spreadType="center"/>
  <edge id="202648848202568610" from="202648848" to="202568610" numLanes="2" shape="-85.1572817,35.0430155 -85.1569073,35.0428949" speed="20.244608" spreadType="right"/>
  <edge id="2026488487830952583" from="202648848" to="7830952583" shape="-85.1572817,35.0430155 -85.1574265,35.0427357 -85.157507,35.0425803 -85.157652,35.0423002 -85.1577724,35.0420676 -85.1578918,35.0418369 -85.1580002,35.0416123 -85.1580399,35.0415949 -85.1581402,35.0415982 -85.1583185,35.0416657 -85.1587219,35.0418183 -85.1588082,35.0418117" speed="23.342587500000004" spreadType="right"/>
  <edge id="202648848202626202" from="202648848" to="202626202" numLanes="2" shape="-85.1572817,35.0430155 -85.1575973,35.0431263 -85.157729,35.0431726 -85.1579124,35.043237 -85.1581401,35.0433169" speed="20.244608" spreadType="right"/>
  <edge id="202568614202568603" from="202568614" to="202568603" numLanes="3" shape="-85.1531288,35.0452933 -85.1543975,35.0440434 -85.1559105,35.0426381 -85.1564402,35.0421461 -85.1586195,35.0401373" speed="27.003836" spreadType="center"/>
  <edge id="202568614202568610" from="202568614" to="202568610" numLanes="2" shape="-85.1531288,35.0452933 -85.1540444,35.0446044 -85.1546992,35.0441565 -85.1559468,35.0434437 -85.1567924,35.0429606 -85.1569073,35.0428949" speed="23.342587500000004" spreadType="center"/>
  <edge id="2026262026715014168" from="202626202" to="6715014168" numLanes="2" shape="-85.1581401,35.0433169 -85.1583549,35.0433962" speed="20.244608" spreadType="right"/>
  <edge id="2026262027169022636" from="202626202" to="7169022636" shape="-85.1581401,35.0433169 -85.1579487,35.0437167 -85.157902,35.0438143 -85.1578667,35.0438677 -85.1577973,35.0439308 -85.1577259,35.0439823 -85.1576029,35.0440292 -85.1573438,35.0440952" speed="23.342587500000004" spreadType="right"/>
  <edge id="202626202202648848" from="202626202" to="202648848" numLanes="2" shape="-85.1581401,35.0433169 -85.1579124,35.043237 -85.157729,35.0431726 -85.1575973,35.0431263 -85.1572817,35.0430155" speed="20.244608" spreadType="right"/>
  <edge id="2026262023583810132" from="202626202" to="3583810132" shape="-85.1581401,35.0433169 -85.1582183,35.0431649 -85.1583571,35.0428953 -85.1584028,35.0428064 -85.1584297,35.0427541 -85.1585229,35.042785 -85.1587975,35.0423034 -85.1590977,35.0417767 -85.1591905,35.0417662 -85.1596798,35.0419599 -85.1597091,35.0419813 -85.1600218,35.0422101 -85.1601058,35.0422428 -85.1602579,35.042302 -85.1610089,35.0425941" speed="23.342587500000004" spreadType="right"/>
  <edge id="6715014168202626202" from="6715014168" to="202626202" numLanes="2" shape="-85.1583549,35.0433962 -85.1581401,35.0433169" speed="20.244608" spreadType="right"/>
  <edge id="7169022636202626202" from="7169022636" to="202626202" shape="-85.1573438,35.0440952 -85.1576029,35.0440292 -85.1577259,35.0439823 -85.1577973,35.0439308 -85.1578667,35.0438677 -85.157902,35.0438143 -85.1579487,35.0437167 -85.1581401,35.0433169" speed="23.342587500000004" spreadType="right"/>
  <edge id="3583810132202626202" from="3583810132" to="202626202" shape="-85.1610089,35.0425941 -85.1602579,35.042302 -85.1601058,35.0422428 -85.1600218,35.0422101 -85.1597091,35.0419813 -85.1596798,35.0419599 -85.1591905,35.0417662 -85.1590977,35.0417767 -85.1587975,35.0423034 -85.1585229,35.042785 -85.1584297,35.0427541 -85.1584028,35.0428064 -85.1583571,35.0428953 -85.1582183,35.0431649 -85.1581401,35.0433169" speed="23.342587500000004" spreadType="right"/>
  <edge id="7830952583202648848" from="7830952583" to="202648848" shape="-85.1588082,35.0418117 -85.1587219,35.0418183 -85.1583185,35.0416657 -85.1581402,35.0415982 -85.1580399,35.0415949 -85.1580002,35.0416123 -85.1578918,35.0418369 -85.1577724,35.0420676 -85.157652,35.0423002 -85.157507,35.0425803 -85.1574265,35.0427357 -85.1572817,35.0430155" speed="23.342587500000004" spreadType="right"/>
  <edge id="70432312827043231278" from="7043231282" to="7043231278" shape="-85.153693,35.0416725 -85.1538072,35.0414628" speed="23.342587500000004" spreadType="right"/>
  <edge id="7043231282202678527" from="7043231282" to="202678527" numLanes="2" shape="-85.153693,35.0416725 -85.1540362,35.0417989" speed="15.738456000000003" spreadType="right"/>
  <edge id="70432312826715816100" from="7043231282" to="6715816100" numLanes="2" shape="-85.153693,35.0416725 -85.1533473,35.0415506 -85.1531304,35.0414725 -85.1527382,35.0413311 -85.1523752,35.0412003 -85.1521763,35.0411286 -85.1520259,35.0410744" speed="15.738456000000003" spreadType="right"/>
  <edge id="7043231275202678527" from="7043231275" to="202678527" numLanes="2" shape="-85.154462,35.0410986 -85.1544284,35.0411362 -85.1540362,35.0417989" speed="23.342587500000004" spreadType="right"/>
  <edge id="7210975134202678527" from="7210975134" to="202678527" shape="-85.1533069,35.0432473 -85.1533716,35.0431188 -85.1536688,35.0425285 -85.1537283,35.0424104 -85.1538435,35.0421815 -85.1539524,35.0419653 -85.1540362,35.0417989" speed="23.342587500000004" spreadType="right"/>
  <edge id="2026983157564605312" from="202698315" to="7564605312" numLanes="3" shape="-85.1500137,35.0403425 -85.1505936,35.0405545" speed="15.738456000000003" spreadType="right"/>
  <edge id="2026983157564605307" from="202698315" to="7564605307" shape="-85.1500137,35.0403425 -85.149841,35.0406997 -85.1497966,35.0407819" speed="23.342587500000004" spreadType="right"/>
  <edge id="202698315202748867" from="202698315" to="202748867" numLanes="2" shape="-85.1500137,35.0403425 -85.1503675,35.0396895 -85.1504017,35.0396265 -85.1505838,35.0392905 -85.1507921,35.0389063 -85.1508982,35.0387105 -85.1511019,35.0383347 -85.1512074,35.03814 -85.1515689,35.0374729 -85.1518356,35.0369808" speed="20.244608" spreadType="right"/>
  <edge id="2026983151717049910" from="202698315" to="1717049910" numLanes="2" shape="-85.1500137,35.0403425 -85.1489046,35.0399376 -85.1487175,35.0398693 -85.1481541,35.0396636 -85.1471197,35.039286 -85.1471046,35.0392806 -85.1459959,35.0388868" speed="15.738456000000003" spreadType="right"/>
  <edge id="75646053127564605313" from="7564605312" to="7564605313" shape="-85.1505936,35.0405545 -85.1505429,35.0407239" speed="23.342587500000004" spreadType="right"/>
  <edge id="7564605312202698315" from="7564605312" to="202698315" numLanes="3" shape="-85.1505936,35.0405545 -85.1500137,35.0403425" speed="15.738456000000003" spreadType="right"/>
  <edge id="75646053121717049926" from="7564605312" to="1717049926" numLanes="3" shape="-85.1505936,35.0405545 -85.1508299,35.0406402 -85.1509168,35.0406719 -85.1510471,35.0407194 -85.1515495,35.0409027" speed="15.738456000000003" spreadType="right"/>
  <edge id="7564605307202698315" from="7564605307" to="202698315" shape="-85.1497966,35.0407819 -85.149841,35.0406997 -85.1500137,35.0403425" speed="23.342587500000004" spreadType="right"/>
  <edge id="202748867202698315" from="202748867" to="202698315" numLanes="2" shape="-85.1518356,35.0369808 -85.1515689,35.0374729 -85.1512074,35.03814 -85.1511019,35.0383347 -85.1508982,35.0387105 -85.1507921,35.0389063 -85.1505838,35.0392905 -85.1504017,35.0396265 -85.1503675,35.0396895 -85.1500137,35.0403425" speed="20.244608" spreadType="right"/>
  <edge id="1717049910202698315" from="1717049910" to="202698315" numLanes="2" shape="-85.1459959,35.0388868 -85.1471046,35.0392806 -85.1471197,35.039286 -85.1481541,35.0396636 -85.1487175,35.0398693 -85.1489046,35.0399376 -85.1500137,35.0403425" speed="15.738456000000003" spreadType="right"/>
  <edge id="459314276202556079" from="459314276" to="202556079" numLanes="2" shape="-85.1594092,35.0391588 -85.159113,35.03935 -85.1579233,35.0404054 -85.1573829,35.0407792 -85.1569812,35.0410257 -85.1565937,35.0412439 -85.1562976,35.0413847 -85.1550918,35.0420098 -85.1548888,35.0421493" speed="23.342587500000004" spreadType="center"/>
  <edge id="459314276459314290" from="459314276" to="459314290" numLanes="3" shape="-85.1594092,35.0391588 -85.15626,35.0420688 -85.1557116,35.0425709 -85.1528525,35.0451888" speed="31.509988000000003" spreadType="center"/>
  <edge id="17170499266715816106" from="1717049926" to="6715816106" shape="-85.1515495,35.0409027 -85.151645,35.0407298" speed="23.342587500000004" spreadType="right"/>
  <edge id="17170499266715816100" from="1717049926" to="6715816100" numLanes="2" shape="-85.1515495,35.0409027 -85.1520259,35.0410744" speed="15.738456000000003" spreadType="right"/>
  <edge id="17170499267043048342" from="1717049926" to="7043048342" numLanes="1" shape="-85.1515495,35.0409027 -85.151359,35.041252 -85.1513268,35.041311 -85.1512456,35.0414703 -85.1511623,35.0416339" speed="23.342587500000004" spreadType="right"/>
  <edge id="17170499267564605312" from="1717049926" to="7564605312" numLanes="3" shape="-85.1515495,35.0409027 -85.1510471,35.0407194 -85.1509168,35.0406719 -85.1508299,35.0406402 -85.1505936,35.0405545" speed="15.738456000000003" spreadType="right"/>
  <edge id="67158161061717049926" from="6715816106" to="1717049926" shape="-85.151645,35.0407298 -85.1515495,35.0409027" speed="23.342587500000004" spreadType="right"/>
  <edge id="67158161001717049926" from="6715816100" to="1717049926" numLanes="2" shape="-85.1520259,35.0410744 -85.1515495,35.0409027" speed="15.738456000000003" spreadType="right"/>
  <edge id="67158161006715816102" from="6715816100" to="6715816102" shape="-85.1520259,35.0410744 -85.1521196,35.0408989 -85.1521126,35.0408809" speed="23.342587500000004" spreadType="right"/>
  <edge id="67158161007043231282" from="6715816100" to="7043231282" numLanes="2" shape="-85.1520259,35.0410744 -85.1521763,35.0411286 -85.1523752,35.0412003 -85.1527382,35.0413311 -85.1531304,35.0414725 -85.1533473,35.0415506 -85.153693,35.0416725" speed="15.738456000000003" spreadType="right"/>
  <edge id="70430483421717049926" from="7043048342" to="1717049926" numLanes="1" shape="-85.1511623,35.0416339 -85.1512456,35.0414703 -85.1513268,35.041311 -85.151359,35.041252 -85.1515495,35.0409027" speed="23.342587500000004" spreadType="right"/>
  <edge id="67158161026715816100" from="6715816102" to="6715816100" shape="-85.1521126,35.0408809 -85.1521196,35.0408989 -85.1520259,35.0410744" speed="23.342587500000004" spreadType="right"/>
  <edge id="70432312787043231282" from="7043231278" to="7043231282" shape="-85.1538072,35.0414628 -85.153693,35.0416725" speed="23.342587500000004" spreadType="right"/>
  <edge id="75646053137564605312" from="7564605313" to="7564605312" shape="-85.1505429,35.0407239 -85.1505936,35.0405545" speed="23.342587500000004" spreadType="right"/>
</edges>
